data/inputs/nesta_case1888_rte.m
%%%%%%%%%%%%%%%%%%%%%%%%%%%%%%%%%%%%%%%%%%%%%%%%%%%%%%%%%%%%%%%%%%%%%%%%%%%
%%%%                                                                  %%%%%
%%%%      NICTA Energy System Test Case Archive (NESTA) - v0.7.0      %%%%%
%%%%              Optimal Power Flow - Typical Operation              %%%%%
%%%%                         05 - June - 2017                         %%%%%
%%%%                                                                  %%%%%
%%%%%%%%%%%%%%%%%%%%%%%%%%%%%%%%%%%%%%%%%%%%%%%%%%%%%%%%%%%%%%%%%%%%%%%%%%%
%
%CASE1888RTE
%   AC Power flow data for French system.
%   Please see CASEFORMAT for details on the case file format.
%
%   This case accurately represents the size and complexity of French
%   very high voltage transmission network.
%   Part of this data was sampled in the offline platform of iTesla.
%   These data can be used to validate mathematical methods and tools.
%   These data should NOT be used for operation
%   nor planning of the French or European grids.
%
%   When publishing results using this data, please cite:
%     C. Josz, S. Fliscounakis, J. Maeght, and P. Panciatici,
%     "AC Power Flow Data in MATPOWER and QCQP Format: iTesla, RTE Snapshots, and PEGASE"
%     http://arxiv.org/abs/1603.01533
%
%   Contacts (primary contact for this file : Jean Maeght):
%   Cédric Josz, Stéphane Fliscounakis, Jean Maeght, Patrick Panciatici
%   firstname.lastname@rte-france.com
%   Réseau de Transport d'Electricité (French Transmission System Operator)
%   Département Expertise Système, Immeuble "Le Colbert"
%   9 rue de la Porte de Buc, 78000 Versailles Cedex, France
%   March 4th, 2016
%
function mpc = nesta_case1888_rte
mpc.version = '2';
mpc.baseMVA = 100.0;

%% bus data
%	bus_i	type	Pd	Qd	Gs	Bs	area	Vm	Va	baseKV	zone	Vmax	Vmin
mpc.bus = [
	1	 1	 5.8	 -5.8	 0.0	 0.0	 1	    1.03581	  -20.68644	 225.0	 1	    1.08889	    0.88889;
	2	 1	 0.0	 0.0	 0.0	 0.0	 1	    1.05577	   -0.50099	 380.0	 1	    1.10263	    1.04841;
	3	 1	 142.5	 -13.4	 0.0	 0.0	 1	    1.04729	    1.78535	 225.0	 1	    1.08444	    1.00444;
	4	 1	 0.0	 0.0	 0.0	 0.0	 1	    1.05199	  -13.31126	 150.0	 1	    1.10667	    0.90000;
	5	 1	 32.8	 -5.3	 0.0	 0.0	 1	    1.06271	  -14.33919	 225.0	 1	    1.08889	    0.93333;
	6	 1	 40.2	 4.0	 0.0	 0.0	 1	    1.06035	  -14.88823	 225.0	 1	    1.08889	    0.93333;
	7	 1	 0.0	 0.0	 0.0	 0.0	 1	    1.04281	  -12.63250	 380.0	 1	    1.10526	    1.03947;
	8	 1	 0.0	 0.0	 0.0	 0.0	 1	    1.05768	  -12.38581	 380.0	 1	    1.10526	    1.03947;
	9	 1	 0.0	 0.0	 0.0	 0.0	 1	    1.05074	  -16.45924	 225.0	 1	    1.09035	    1.00444;
	10	 1	 148.8	 14.9	 0.0	 0.0	 1	    1.04605	  -18.81802	 225.0	 1	    1.08889	    0.93333;
	11	 1	 25.6	 5.0	 0.0	 0.0	 1	    1.04408	  -18.39505	 225.0	 1	    1.08889	    1.00444;
	12	 1	 39.1	 8.7	 0.0	 0.0	 1	    1.02153	  -19.19947	 225.0	 1	    1.08889	    1.00444;
	13	 1	 70.5	 17.2	 0.0	 0.0	 1	    1.04407	  -18.39219	 225.0	 1	    1.08889	    1.00444;
	14	 1	 36.0	 -4.2	 0.0	 0.0	 1	    1.03441	  -19.02403	 225.0	 1	    1.08252	    0.95000;
	15	 1	 0.0	 0.0	 0.0	 0.0	 1	    1.04757	  -10.71897	 225.0	 1	    1.08889	    1.00444;
	16	 1	 0.0	 0.0	 0.0	 0.0	 1	    1.04757	  -10.71897	 225.0	 1	    1.08889	    1.00444;
	17	 1	 23.7	 -12.4	 0.0	 0.0	 1	    1.03391	  -19.18464	 225.0	 1	    1.08889	    0.88889;
	18	 1	 5.9	 -4.8	 0.0	 0.0	 1	    1.03461	  -19.01776	 225.0	 1	    1.09633	    0.98667;
	19	 1	 34.0	 3.7	 0.0	 0.0	 1	    1.03534	  -18.98959	 225.0	 1	    1.08889	    1.00444;
	20	 1	 6.9	 0.8	 0.0	 0.0	 1	    1.03537	  -18.98728	 225.0	 1	    1.08889	    1.00444;
	21	 1	 9.2	 -29.1	 0.0	 0.0	 1	    1.04660	  -14.83012	 225.0	 1	    1.08889	    1.00444;
	22	 1	 67.7	 -3.6	 0.0	 0.0	 1	    1.04095	  -21.66078	 225.0	 1	    1.08889	    0.98667;
	23	 1	 25.4	 -2.7	 0.0	 0.0	 1	    1.02591	  -22.88417	 225.0	 1	    1.08889	    0.88889;
	25	 1	 64.0	 4.6	 0.0	 0.0	 1	    1.06113	  -15.16067	 225.0	 1	    1.08444	    1.00889;
	27	 1	 71.6	 46.7	 0.0	 0.0	 1	    1.01876	  -13.21127	 225.0	 1	    1.08889	    0.93333;
	28	 1	 105.4	 6.9	 0.0	 0.0	 1	    1.04033	  -16.12204	 225.0	 1	    1.08889	    1.00444;
	29	 1	 0.0	 0.0	 0.0	 0.0	 1	    1.05572	   -0.48482	 380.0	 1	    1.10526	    1.04842;
	30	 1	 0.0	 0.0	 0.0	 0.0	 1	    1.05575	   -0.46527	 380.0	 1	    1.10526	    1.04842;
	31	 1	 21.7	 0.9	 0.0	 0.0	 1	    1.04988	   -3.24482	 225.0	 1	    1.08444	    1.00889;
	33	 1	 68.9	 2.6	 0.0	 0.0	 1	    1.04322	   -4.25355	 225.0	 1	    1.08444	    1.00889;
	34	 1	 50.6	 12.7	 0.0	 0.0	 1	    1.04397	  -18.30969	 225.0	 1	    1.08889	    1.00444;
	35	 1	 17.0	 2.1	 0.0	 0.0	 1	    1.03405	  -13.90352	 150.0	 1	    1.08000	    0.96667;
	36	 1	 38.2	 6.3	 0.0	 0.0	 1	    1.06196	  -14.53133	 225.0	 1	    1.09212	    1.00000;
	37	 1	 0.0	 0.0	 0.0	 0.0	 1	    1.06882	  -11.99650	 380.0	 1	    1.10526	    1.04785;
	38	 1	 89.0	 9.6	 0.0	 0.0	 1	    1.03047	  -23.07951	 225.0	 1	    1.08889	    0.98667;
	2050	 1	 0.0	 0.0	 0.0	 -64.0	 1	    1.02955	  -19.61385	 20.0	 1	    1.50000	    0.80000;
	39	 1	 70.9	 -2.3	 0.0	 0.0	 1	    1.03367	  -18.98748	 225.0	 1	    1.08889	    0.96889;
	40	 1	 136.2	 -10.7	 0.0	 0.0	 1	    1.03850	  -16.21298	 380.0	 1	    1.10526	    1.00000;
	41	 1	 64.6	 17.3	 0.0	 0.0	 1	    1.04066	  -17.12927	 225.0	 1	    1.08889	    0.93333;
	42	 1	 13.4	 3.3	 0.0	 0.0	 1	    1.03107	  -22.53014	 225.0	 1	    1.08889	    0.88889;
	43	 1	 33.3	 4.7	 0.0	 0.0	 1	    1.03090	  -22.57389	 225.0	 1	    1.08889	    0.88889;
	44	 1	 211.6	 -1.3	 0.0	 0.0	 1	    1.05770	   -4.24664	 225.0	 1	    1.08496	    1.00444;
	45	 1	 92.1	 -9.1	 0.0	 0.0	 1	    1.04921	  -15.94557	 225.0	 1	    1.08889	    1.00444;
	46	 2	 0.0	 0.0	 0.0	 0.0	 1	    1.07103	    5.85219	 150.0	 1	    1.10843	    0.90000;
	47	 1	 0.0	 0.0	 0.0	 0.0	 1	    1.02810	  -18.71733	 225.0	 1	    1.08889	    1.00444;
	48	 1	 0.0	 0.0	 0.0	 0.0	 1	    1.02810	  -18.71733	 225.0	 1	    1.08889	    1.00444;
	49	 1	 63.7	 84.5	 0.0	 -80.0	 1	    1.02810	  -18.71733	 225.0	 1	    1.08889	    1.00444;
	50	 1	 10.4	 6.6	 0.0	 0.0	 1	    1.03943	  -16.46245	 225.0	 1	    1.08889	    1.00444;
	51	 1	 0.0	 0.0	 0.0	 0.0	 1	    1.03950	   -4.49144	 225.0	 1	    1.08889	    1.00000;
	52	 1	 68.7	 16.5	 0.0	 0.0	 1	    1.02337	  -23.05738	 225.0	 1	    1.08889	    0.88889;
	53	 1	 101.2	 15.9	 0.0	 0.0	 1	    1.01678	  -20.73425	 225.0	 1	    1.08889	    0.96889;
	54	 1	 0.0	 0.0	 0.0	 0.0	 1	    1.01887	  -18.89012	 380.0	 1	    1.10526	    1.00000;
	55	 1	 28.9	 10.6	 0.0	 0.0	 1	    1.03562	   -3.71139	 225.0	 1	    1.08444	    1.00889;
	56	 1	 28.2	 2.1	 0.0	 0.0	 1	    1.03581	   -3.71278	 225.0	 1	    1.08444	    1.00889;
	1827	 1	 109.6	 -12.9	 0.0	 0.0	 1	    1.04567	  -12.22830	 225.0	 1	    1.08889	    1.00444;
	57	 1	 27.3	 -10.9	 0.0	 0.0	 1	    1.05606	   -4.98501	 225.0	 1	    1.08945	    0.93333;
	58	 2	 0.0	 0.0	 0.0	 0.0	 1	    1.06965	    5.63392	 150.0	 1	    1.10862	    0.90000;
	59	 1	 36.8	 20.3	 0.0	 0.0	 1	    1.03974	   -1.24446	 225.0	 1	    1.08444	    1.00889;
	60	 1	 36.5	 30.8	 0.0	 0.0	 1	    1.03957	   -1.24244	 225.0	 1	    1.08444	    1.00889;
	61	 1	 0.0	 0.0	 0.0	 0.0	 1	    1.04066	   -1.57398	 225.0	 1	    1.08889	    0.97778;
	62	 1	 8.4	 -0.3	 0.0	 0.0	 1	    1.03171	  -20.67789	 225.0	 1	    1.08889	    0.88889;
	63	 1	 13.2	 -6.3	 0.0	 0.0	 1	    1.07280	  -13.91557	 225.0	 1	    1.08889	    0.93333;
	64	 1	 13.2	 3.3	 0.0	 0.0	 1	    1.02108	  -19.33681	 225.0	 1	    1.08889	    1.00444;
	65	 1	 22.7	 2.5	 0.0	 0.0	 1	    1.05085	  -16.50921	 225.0	 1	    1.08889	    1.00444;
	66	 1	 11.4	 -9.7	 0.0	 0.0	 1	    1.04199	   -4.77557	 225.0	 1	    1.08889	    1.00000;
	67	 1	 10.2	 -1.3	 0.0	 0.0	 1	    1.04503	  -16.89682	 225.0	 1	    1.08889	    0.98667;
	68	 1	 0.0	 0.0	 0.0	 0.0	 1	    1.03325	  -22.30943	 225.0	 1	    1.08889	    0.88889;
	69	 1	 0.0	 0.0	 0.0	 0.0	 1	    1.02787	  -22.56905	 225.0	 1	    1.08889	    0.88889;
	70	 1	 0.0	 0.0	 0.0	 0.0	 1	    1.03584	  -20.83253	 380.0	 1	    1.10526	    1.01316;
	71	 1	 39.2	 2.8	 0.0	 0.0	 1	    1.03622	  -19.16053	 225.0	 1	    1.08889	    1.00444;
	72	 1	 19.3	 3.3	 0.0	 -80.0	 1	    1.03493	  -18.52041	 225.0	 1	    1.08889	    1.00444;
	73	 1	 0.0	 0.0	 0.0	 0.0	 1	    1.04204	   -3.49924	 225.0	 1	    1.08889	    0.97778;
	74	 1	 0.0	 0.0	 0.0	 0.0	 1	    1.04204	   -3.49830	 225.0	 1	    1.08889	    0.97778;
	75	 1	 131.9	 3.2	 0.0	 0.0	 1	    1.04110	   -3.98249	 225.0	 1	    1.08444	    1.00889;
	76	 1	 0.0	 0.0	 0.0	 0.0	 1	    1.05339	   -0.06818	 225.0	 1	    1.08444	    1.00444;
	77	 1	 0.0	 0.0	 0.0	 0.0	 1	    1.04926	    4.79751	 380.0	 1	    1.10263	    1.04211;
	78	 1	 94.6	 -1.9	 0.0	 0.0	 1	    1.05331	   -0.11719	 225.0	 1	    1.08444	    1.00444;
	79	 1	 -1.7	 -4.6	 0.0	 0.0	 1	    1.02203	  -19.10353	 225.0	 1	    1.08936	    1.00444;
	80	 1	 3.6	 -7.2	 0.0	 0.0	 1	    1.02203	  -19.10763	 225.0	 1	    1.08936	    1.00444;
	81	 1	 35.4	 10.9	 0.0	 0.0	 1	    1.03027	  -20.75501	 225.0	 1	    1.08889	    0.88889;
	82	 1	 15.1	 0.7	 0.0	 0.0	 1	    1.03023	  -21.15629	 225.0	 1	    1.08124	    0.95000;
	83	 1	 57.4	 18.0	 0.0	 0.0	 1	    1.03273	  -19.05641	 225.0	 1	    1.08889	    0.88889;
	84	 1	 89.9	 -5.8	 0.0	 0.0	 1	    1.05120	   -1.55825	 225.0	 1	    1.08889	    1.00000;
	85	 1	 0.0	 0.0	 0.0	 0.0	 1	    1.03568	   -7.57433	 225.0	 1	    1.08889	    1.00000;
	86	 1	 239.8	 17.5	 0.0	 0.0	 1	    1.07409	   -7.56167	 380.0	 1	    1.10526	    1.05070;
	87	 1	 35.5	 16.0	 0.0	 0.0	 1	    1.05727	   -7.92880	 225.0	 1	    1.08889	    1.00000;
	88	 1	 76.1	 23.0	 0.0	 0.0	 1	    1.05692	   -5.53434	 225.0	 1	    1.08889	    1.00000;
	89	 2	 0.0	 0.0	 0.0	 0.0	 1	    1.02050	   -9.31704	 150.0	 1	    1.10000	    0.90000;
	90	 1	 21.3	 12.0	 0.0	 0.0	 1	    1.02087	  -18.51245	 225.0	 1	    1.08889	    0.98667;
	91	 1	 11.2	 -5.2	 0.0	 0.0	 1	    1.03535	   -5.79478	 225.0	 1	    1.08444	    1.00889;
	92	 1	 0.0	 0.0	 0.0	 0.0	 1	    1.04623	  -10.37466	 380.0	 1	    1.10526	    1.04211;
	93	 1	 0.0	 0.0	 0.0	 0.0	 1	    1.04613	  -10.35950	 380.0	 1	    1.10526	    1.04211;
	96	 1	 11.7	 1.3	 0.0	 0.0	 1	    1.05223	   -1.48183	 225.0	 1	    1.08889	    1.00000;
	97	 1	 6.1	 1.4	 0.0	 0.0	 1	    1.04963	  -12.69982	 225.0	 1	    1.08889	    1.00444;
	98	 1	 31.6	 2.6	 0.0	 0.0	 1	    1.05706	    2.89907	 150.0	 1	    1.10000	    0.90000;
	99	 1	 68.9	 -11.7	 0.0	 0.0	 1	    1.05855	   -6.83248	 225.0	 1	    1.08889	    1.00000;
	100	 2	 0.2	 -0.0	 0.0	 0.0	 1	    1.03538	  -18.98236	 225.0	 1	    1.08294	    0.95000;
	101	 1	 0.0	 0.0	 0.0	 0.0	 1	    1.06239	  -14.42626	 225.0	 1	    1.08889	    0.93333;
	102	 1	 0.0	 0.0	 0.0	 0.0	 1	    1.05811	  -12.34489	 380.0	 1	    1.10526	    1.03947;
	103	 1	 0.0	 0.0	 0.0	 0.0	 1	    1.04249	  -12.59487	 380.0	 1	    1.10526	    1.03947;
	104	 1	 0.0	 0.0	 0.0	 0.0	 1	    1.04431	  -18.38029	 225.0	 1	    1.08889	    1.00444;
	1828	 1	 30.1	 3.8	 0.0	 0.0	 1	    1.03546	  -20.43773	 225.0	 1	    1.08889	    1.00444;
	105	 1	 0.0	 0.0	 0.0	 0.0	 1	    1.02034	  -19.93813	 225.0	 1	    1.08889	    0.98667;
	106	 1	 12.1	 4.5	 0.0	 0.0	 1	    1.04416	  -18.38859	 225.0	 1	    1.08889	    1.00444;
	107	 1	 106.1	 -0.3	 0.0	 0.0	 1	    1.03486	  -11.59843	 225.0	 1	    1.08889	    0.93333;
	108	 1	 0.0	 0.0	 0.0	 0.0	 1	    1.05099	   -9.73347	 380.0	 1	    1.10526	    1.03947;
	109	 1	 43.3	 8.4	 0.0	 0.0	 1	    1.05384	    0.11485	 225.0	 1	    1.08889	    1.00000;
	110	 1	 33.2	 -7.5	 0.0	 0.0	 1	    1.05081	  -15.45087	 225.0	 1	    1.08986	    1.00444;
	111	 1	 99.5	 -12.4	 0.0	 0.0	 1	    1.07263	   -8.78632	 225.0	 1	    1.09612	    1.00000;
	112	 1	 116.4	 -6.7	 0.0	 0.0	 1	    1.03556	  -19.62131	 225.0	 1	    1.08889	    0.98667;
	113	 1	 65.7	 14.7	 0.0	 0.0	 1	    1.05072	  -16.45685	 225.0	 1	    1.09036	    1.00444;
	114	 1	 107.2	 21.2	 0.0	 0.0	 1	    1.02319	  -23.15607	 225.0	 1	    1.08889	    0.92444;
	115	 1	 56.9	 -2.7	 0.0	 0.0	 1	    1.03929	  -16.34782	 225.0	 1	    1.09614	    0.98667;
	117	 1	 0.0	 0.0	 0.0	 0.0	 1	    1.04431	  -15.54547	 380.0	 1	    1.10526	    1.03947;
	119	 1	 123.6	 -19.8	 0.0	 0.0	 1	    1.02033	   -4.34451	 225.0	 1	    1.08444	    1.00444;
	2051	 1	 0.0	 0.0	 0.0	 -64.0	 1	    1.00894	  -14.41677	 20.0	 1	    1.40000	    0.80000;
	120	 1	 33.3	 -21.3	 0.0	 0.0	 1	    1.05946	  -14.14531	 225.0	 1	    1.08444	    1.00889;
	121	 1	 0.0	 0.0	 0.0	 0.0	 1	    1.05618	  -11.89835	 380.0	 1	    1.10263	    1.02895;
	122	 1	 1.7	 -4.4	 0.0	 0.0	 1	    1.03540	  -11.61485	 225.0	 1	    1.08889	    0.93333;
	123	 1	 140.3	 17.3	 0.0	 0.0	 1	    1.02233	  -13.43699	 225.0	 1	    1.08889	    0.93333;
	124	 1	 33.7	 -1.8	 0.0	 0.0	 1	    1.07697	  -13.67909	 63.0	 1	    1.07937	    0.92063;
	125	 2	 0.0	 0.0	 0.0	 0.0	 1	    1.04112	   -6.83994	 225.0	 1	    1.07476	    0.95000;
	126	 1	 -1.9	 -5.4	 0.0	 0.0	 1	    1.05956	    7.70911	 225.0	 1	    1.09768	    1.00000;
	127	 1	 0.0	 0.0	 0.0	 0.0	 1	    1.05406	    7.74728	 380.0	 1	    1.10526	    1.05263;
	128	 1	 0.0	 0.0	 0.0	 0.0	 1	    1.05419	    7.75075	 380.0	 1	    1.10526	    1.05263;
	129	 1	 0.0	 0.0	 0.0	 0.0	 1	    1.05418	    7.75446	 380.0	 1	    1.10526	    1.05263;
	130	 1	 0.0	 0.0	 0.0	 0.0	 1	    1.05419	    7.73826	 380.0	 1	    1.10526	    1.05263;
	131	 1	 0.0	 0.0	 0.0	 0.0	 1	    1.03916	  -16.26542	 225.0	 1	    1.09645	    0.98667;
	132	 1	 0.0	 0.0	 0.0	 0.0	 1	    1.03920	  -16.23754	 225.0	 1	    1.09645	    0.98667;
	133	 1	 0.0	 0.0	 0.0	 0.0	 1	    1.04364	  -15.40380	 380.0	 1	    1.10526	    1.03947;
	134	 1	 77.3	 -10.6	 0.0	 0.0	 1	    1.03405	  -20.36852	 225.0	 1	    1.08889	    0.96889;
	135	 1	 28.1	 3.8	 0.0	 0.0	 1	    1.06094	  -15.12486	 225.0	 1	    1.08444	    1.00889;
	136	 1	 -5.2	 -9.4	 0.0	 0.0	 1	    1.05194	  -15.96885	 380.0	 1	    1.10526	    1.03947;
	137	 1	 106.4	 8.0	 0.0	 0.0	 1	    1.04417	  -12.17208	 225.0	 1	    1.08889	    0.93333;
	138	 1	 0.0	 0.0	 0.0	 0.0	 1	    1.04108	   -8.79280	 380.0	 1	    1.10526	    1.03947;
	140	 1	 113.7	 -8.3	 0.0	 0.0	 1	    1.03028	   -4.05485	 225.0	 1	    1.08444	    1.00889;
	141	 1	 44.6	 0.5	 0.0	 0.0	 1	    1.03320	   -4.02358	 225.0	 1	    1.08444	    1.00889;
	142	 1	 165.2	 -11.8	 0.0	 0.0	 1	    1.03977	    2.09503	 225.0	 1	    1.08444	    1.00444;
	143	 1	 29.2	 2.1	 0.0	 0.0	 1	    1.04684	  -12.57082	 225.0	 1	    1.08889	    0.93333;
	144	 1	 32.8	 4.4	 0.0	 0.0	 1	    1.04682	  -12.57531	 225.0	 1	    1.08889	    0.93333;
	145	 1	 19.0	 -18.1	 0.0	 0.0	 1	    1.05080	  -15.43451	 225.0	 1	    1.08952	    1.00444;
	146	 1	 0.0	 0.0	 0.0	 0.0	 1	    1.05299	   -5.65978	 225.0	 1	    1.09478	    1.00000;
	147	 1	 0.0	 0.0	 0.0	 0.0	 1	    1.05299	   -5.65976	 225.0	 1	    1.09478	    1.00000;
	148	 1	 37.1	 5.6	 0.0	 0.0	 1	    1.05127	   -1.26756	 225.0	 1	    1.08889	    1.00000;
	149	 1	 20.0	 -3.9	 0.0	 0.0	 1	    1.04962	  -12.62430	 225.0	 1	    1.08889	    1.00444;
	150	 1	 38.1	 1.6	 0.0	 0.0	 1	    1.02477	   -5.94696	 225.0	 1	    1.08444	    1.00889;
	151	 1	 24.8	 -1.8	 0.0	 0.0	 1	    1.05023	   -2.11434	 225.0	 1	    1.08889	    1.00000;
	152	 1	 0.0	 0.0	 0.0	 0.0	 1	    1.04772	   -9.08468	 225.0	 1	    1.08444	    1.00889;
	153	 1	 0.0	 0.0	 0.0	 0.0	 1	    1.04771	   -9.08839	 225.0	 1	    1.08444	    1.00889;
	154	 1	 0.0	 0.0	 0.0	 0.0	 1	    1.04647	   -4.26133	 225.0	 1	    1.08444	    1.00889;
	155	 1	 0.0	 0.0	 0.0	 0.0	 1	    1.04945	   -3.22628	 380.0	 1	    1.10263	    1.02895;
	156	 1	 155.3	 26.5	 0.0	 0.0	 1	    1.03490	  -18.60785	 225.0	 1	    1.08889	    0.88889;
	157	 1	 0.0	 0.0	 0.0	 0.0	 1	    1.05955	    7.70925	 225.0	 1	    1.09766	    1.00000;
	158	 1	 0.0	 0.0	 0.0	 0.0	 1	    1.05414	    7.67004	 380.0	 1	    1.10526	    1.05263;
	159	 1	 21.5	 4.4	 0.0	 0.0	 1	    1.04500	  -17.88294	 225.0	 1	    1.08889	    0.98667;
	160	 1	 26.2	 2.1	 0.0	 0.0	 1	    1.05554	   -6.32195	 225.0	 1	    1.08889	    1.00000;
	161	 1	 0.0	 0.0	 0.0	 0.0	 1	    1.05287	  -10.40574	 225.0	 1	    1.08444	    1.00444;
	162	 1	 0.0	 0.0	 0.0	 0.0	 1	    1.05287	  -10.40574	 225.0	 1	    1.08444	    1.00444;
	163	 1	 0.0	 0.0	 0.0	 0.0	 1	    1.05287	  -10.40593	 225.0	 1	    1.08444	    1.00444;
	164	 1	 55.3	 -11.4	 0.0	 0.0	 1	    1.05286	  -10.40571	 225.0	 1	    1.08444	    1.00444;
	165	 1	 0.0	 0.0	 0.0	 0.0	 1	    1.01798	  -13.12654	 225.0	 1	    1.08889	    0.93333;
	166	 1	 30.0	 12.3	 0.0	 0.0	 1	    1.03473	  -16.60611	 225.0	 1	    1.08889	    0.98667;
	2019	 1	 0.0	 0.0	 0.0	 -64.0	 1	    0.96441	   -6.25393	 20.0	 1	    1.40000	    0.90000;
	167	 1	 0.0	 0.0	 0.0	 0.0	 1	    1.04976	   -5.81530	 225.0	 1	    1.08941	    1.00000;
	168	 1	 0.0	 0.0	 0.0	 0.0	 1	    1.05813	   -2.93890	 380.0	 1	    1.10526	    1.05263;
	169	 2	 0.0	 0.0	 0.0	 0.0	 1	    1.06602	  -14.28034	 225.0	 1	    1.10000	    0.90000;
	170	 1	 17.8	 2.6	 0.0	 0.0	 1	    1.03303	  -14.26924	 150.0	 1	    1.08000	    0.96667;
	171	 1	 25.3	 -3.2	 0.0	 0.0	 1	    1.03573	  -18.92551	 225.0	 1	    1.08889	    1.00444;
	172	 1	 -3.7	 -2.0	 0.0	 0.0	 1	    1.03608	  -18.88267	 225.0	 1	    1.08889	    1.00444;
	173	 1	 37.3	 0.7	 0.0	 0.0	 1	    1.02455	  -20.26362	 225.0	 1	    1.08889	    0.88889;
	181	 1	 107.9	 3.9	 0.0	 0.0	 1	    1.05023	   -2.09232	 225.0	 1	    1.08889	    1.00000;
	182	 1	 29.5	 6.8	 0.0	 0.0	 1	    1.03809	  -18.81993	 225.0	 1	    1.08889	    0.98667;
	183	 1	 0.0	 0.0	 0.0	 0.0	 1	    1.03947	   -7.65593	 380.0	 1	    1.10526	    1.03947;
	184	 1	 0.0	 0.0	 0.0	 0.0	 1	    1.04069	   -7.22805	 380.0	 1	    1.10526	    1.03947;
	185	 1	 0.0	 0.0	 0.0	 0.0	 1	    1.04058	   -7.23136	 380.0	 1	    1.10526	    1.03947;
	186	 1	 0.0	 0.0	 0.0	 0.0	 1	    1.03964	   -7.70297	 380.0	 1	    1.10526	    1.03947;
	187	 1	 28.1	 -10.0	 0.0	 0.0	 1	    1.03484	  -21.22096	 225.0	 1	    1.08889	    0.92444;
	188	 1	 -2.0	 -1.1	 0.0	 0.0	 1	    1.03459	  -22.82947	 225.0	 1	    1.08889	    0.98667;
	189	 1	 65.8	 19.1	 0.0	 0.0	 1	    1.04035	   -9.46298	 225.0	 1	    1.08444	    1.00444;
	190	 1	 -2.3	 1.2	 0.0	 0.0	 1	    1.04559	   -8.71116	 380.0	 1	    1.10263	    1.04211;
	191	 1	 -2.3	 1.4	 0.0	 0.0	 1	    1.04565	   -8.71595	 380.0	 1	    1.10263	    1.04211;
	192	 1	 0.0	 0.0	 0.0	 0.0	 1	    1.03597	  -19.30222	 225.0	 1	    1.08889	    1.00444;
	193	 1	 0.0	 0.0	 0.0	 0.0	 1	    1.05027	   -3.95280	 225.0	 1	    1.08889	    0.97778;
	194	 1	 0.0	 0.0	 0.0	 0.0	 1	    1.05027	   -3.95288	 225.0	 1	    1.08889	    0.97778;
	195	 1	 83.6	 -8.6	 0.0	 0.0	 1	    1.03322	  -20.94850	 225.0	 1	    1.08889	    0.96889;
	196	 1	 0.0	 0.0	 0.0	 0.0	 1	    1.03060	   -7.66710	 225.0	 1	    1.08889	    0.93333;
	197	 1	 0.0	 0.0	 0.0	 0.0	 1	    1.03063	   -7.64262	 225.0	 1	    1.08889	    0.93333;
	198	 1	 57.5	 10.2	 0.0	 0.0	 1	    1.04426	   -4.52116	 225.0	 1	    1.08444	    1.00444;
	199	 1	 177.4	 -31.4	 0.0	 0.0	 1	    1.05440	   -2.07958	 225.0	 1	    1.08444	    1.00444;
	200	 1	 0.0	 0.0	 0.0	 0.0	 1	    1.03975	   -4.44396	 225.0	 1	    1.08889	    0.97778;
	201	 1	 0.0	 0.0	 0.0	 0.0	 1	    1.04444	   -5.43666	 225.0	 1	    1.08444	    1.00444;
	202	 1	 124.2	 -3.2	 0.0	 0.0	 1	    1.03605	  -21.49733	 225.0	 1	    1.08889	    0.95111;
	203	 1	 35.3	 1.9	 0.0	 0.0	 1	    1.03544	  -18.48447	 225.0	 1	    1.08889	    1.00444;
	204	 1	 51.6	 -4.0	 0.0	 0.0	 1	    1.03540	  -22.85599	 225.0	 1	    1.08889	    0.98667;
	2086	 1	 0.0	 0.0	 0.0	 -64.0	 1	    1.00349	  -14.88776	 20.0	 1	    1.40000	    0.80000;
	205	 1	 16.9	 -1.8	 0.0	 0.0	 1	    1.05248	  -14.49128	 225.0	 1	    1.08444	    1.00889;
	206	 1	 0.0	 0.0	 0.0	 0.0	 1	    1.05564	  -12.68513	 380.0	 1	    1.10263	    1.02895;
	207	 1	 38.6	 -0.7	 0.0	 0.0	 1	    1.03542	  -18.58558	 225.0	 1	    1.08889	    1.00444;
	1829	 2	 0.0	 0.0	 0.0	 0.0	 1	    1.02875	  -20.24439	 225.0	 1	    1.07859	    0.95000;
	208	 1	 0.0	 0.0	 0.0	 0.0	 1	    1.02873	  -20.24687	 225.0	 1	    1.08889	    0.88889;
...
];

%% generator data
%	bus	Pg	Qg	Qmax	Qmin	Vg	mBase	status	Pmax	Pmin	Pc1	Pc2	Qc1min	Qc1max	Qc2min	Qc2max	ramp_agc	ramp_10	ramp_30	ramp_q	apf
mpc.gen = [
	1268	 45.0	 -9.0	 27.0	 -9.0	 1.02613	 100.0	 1	 45.0	 44.0	 0.0	 0.0	 0.0	 0.0	 0.0	 0.0	 0.0	 0.0	 0.0	 0.0	 0.0;
	1268	 45.0	 -9.0	 27.0	 -9.0	 1.02613	 100.0	 1	 45.0	 44.0	 0.0	 0.0	 0.0	 0.0	 0.0	 0.0	 0.0	 0.0	 0.0	 0.0	 0.0;
	1356	 22.0	 -12.0	 7.0	 -12.0	 1.05346	 100.0	 1	 22.0	 4.4	 0.0	 0.0	 0.0	 0.0	 0.0	 0.0	 0.0	 0.0	 0.0	 0.0	 0.0;
	89	 25.0	 1.278	 13.0	 -9.0	 1.0205	 100.0	 1	 25.0	 5.0	 0.0	 0.0	 0.0	 0.0	 0.0	 0.0	 0.0	 0.0	 0.0	 0.0	 0.0;
	125	 23.4	 6.503	 8.0	 -17.0	 1.04112	 100.0	 1	 23.4	 4.68	 0.0	 0.0	 0.0	 0.0	 0.0	 0.0	 0.0	 0.0	 0.0	 0.0	 0.0;
	908	 20.0	 1.9	 2.0	 1.9	 1.06835	 100.0	 1	 20.0	 4.0	 0.0	 0.0	 0.0	 0.0	 0.0	 0.0	 0.0	 0.0	 0.0	 0.0	 0.0;
	817	 0.0	 0.0	 1.0	 0.9	 1.07225	 100.0	 0	 12.0	 2.4	 0.0	 0.0	 0.0	 0.0	 0.0	 0.0	 0.0	 0.0	 0.0	 0.0	 0.0;
	817	 14.0	 0.9	 1.0	 0.9	 1.07225	 100.0	 1	 14.0	 2.8	 0.0	 0.0	 0.0	 0.0	 0.0	 0.0	 0.0	 0.0	 0.0	 0.0	 0.0;
	817	 0.0	 0.0	 1.0	 0.9	 1.07225	 100.0	 0	 12.0	 2.4	 0.0	 0.0	 0.0	 0.0	 0.0	 0.0	 0.0	 0.0	 0.0	 0.0	 0.0;
	1335	 30.0	 0.643	 10.0	 -10.0	 1.02254	 100.0	 1	 30.0	 6.0	 0.0	 0.0	 0.0	 0.0	 0.0	 0.0	 0.0	 0.0	 0.0	 0.0	 0.0;
	396	 11.0	 1.0	 5.0	 1.0	 0.98818	 100.0	 1	 11.0	 2.2	 0.0	 0.0	 0.0	 0.0	 0.0	 0.0	 0.0	 0.0	 0.0	 0.0	 0.0;
	396	 11.0	 1.0	 5.0	 1.0	 0.98818	 100.0	 1	 11.0	 2.2	 0.0	 0.0	 0.0	 0.0	 0.0	 0.0	 0.0	 0.0	 0.0	 0.0	 0.0;
	975	 35.0	 -15.0	 15.0	 -15.0	 1.06054	 100.0	 1	 35.0	 7.0	 0.0	 0.0	 0.0	 0.0	 0.0	 0.0	 0.0	 0.0	 0.0	 0.0	 0.0;
	858	 55.4	 0.0	 0.0	 0.0	 1.05844	 100.0	 1	 55.4	 11.08	 0.0	 0.0	 0.0	 0.0	 0.0	 0.0	 0.0	 0.0	 0.0	 0.0	 0.0;
	921	 42.0	 -19.742	 25.0	 -20.0	 0.96681	 100.0	 1	 42.0	 8.4	 0.0	 0.0	 0.0	 0.0	 0.0	 0.0	 0.0	 0.0	 0.0	 0.0	 0.0;
	921	 42.0	 -19.742	 25.0	 -20.0	 0.96681	 100.0	 1	 42.0	 8.4	 0.0	 0.0	 0.0	 0.0	 0.0	 0.0	 0.0	 0.0	 0.0	 0.0	 0.0;
	1255	 87.0	 -24.36	 26.1	 -24.36	 1.05528	 100.0	 1	 87.0	 17.4	 0.0	 0.0	 0.0	 0.0	 0.0	 0.0	 0.0	 0.0	 0.0	 0.0	 0.0;
	169	 7.491	 0.764	 8.3	 -8.3	 1.06602	 100.0	 1	 8.3	 1.66	 0.0	 0.0	 0.0	 0.0	 0.0	 0.0	 0.0	 0.0	 0.0	 0.0	 0.0;
	448	 4.0	 0.0	 0.0	 0.0	 1.04126	 100.0	 1	 4.0	 0.0	 0.0	 0.0	 0.0	 0.0	 0.0	 0.0	 0.0	 0.0	 0.0	 0.0	 0.0;
	241	 6.447	 -1.969	 5.0	 -5.0	 0.96891	 100.0	 1	 13.0	 2.6	 0.0	 0.0	 0.0	 0.0	 0.0	 0.0	 0.0	 0.0	 0.0	 0.0	 0.0;
	241	 6.447	 -1.969	 5.0	 -5.0	 0.96891	 100.0	 1	 13.0	 2.6	 0.0	 0.0	 0.0	 0.0	 0.0	 0.0	 0.0	 0.0	 0.0	 0.0	 0.0;
	241	 6.447	 -1.969	 5.0	 -5.0	 0.96891	 100.0	 1	 13.0	 2.6	 0.0	 0.0	 0.0	 0.0	 0.0	 0.0	 0.0	 0.0	 0.0	 0.0	 0.0;
	241	 6.447	 -1.969	 5.0	 -5.0	 0.96891	 100.0	 1	 13.0	 2.6	 0.0	 0.0	 0.0	 0.0	 0.0	 0.0	 0.0	 0.0	 0.0	 0.0	 0.0;
	270	 50.0	 20.169	 27.0	 -9.0	 1.02385	 100.0	 1	 50.0	 10.0	 0.0	 0.0	 0.0	 0.0	 0.0	 0.0	 0.0	 0.0	 0.0	 0.0	 0.0;
	885	 8.0	 0.0	 0.0	 0.0	 1.02914	 100.0	 1	 8.0	 1.6	 0.0	 0.0	 0.0	 0.0	 0.0	 0.0	 0.0	 0.0	 0.0	 0.0	 0.0;
	885	 8.0	 0.0	 0.0	 0.0	 1.02914	 100.0	 1	 8.0	 1.6	 0.0	 0.0	 0.0	 0.0	 0.0	 0.0	 0.0	 0.0	 0.0	 0.0	 0.0;
	876	 54.0	 0.0	 0.0	 0.0	 1.045	 100.0	 1	 54.0	 10.8	 0.0	 0.0	 0.0	 0.0	 0.0	 0.0	 0.0	 0.0	 0.0	 0.0	 0.0;
	46	 30.0	 -4.0	 10.0	 -4.0	 1.07103	 100.0	 1	 30.0	 6.0	 0.0	 0.0	 0.0	 0.0	 0.0	 0.0	 0.0	 0.0	 0.0	 0.0	 0.0;
	803	 13.8	 -5.56	 4.63	 -5.56	 1.03849	 100.0	 1	 13.8	 2.76	 0.0	 0.0	 0.0	 0.0	 0.0	 0.0	 0.0	 0.0	 0.0	 0.0	 0.0;
	356	 41.4	 -11.59	 12.42	 -11.59	 1.0579	 100.0	 1	 41.4	 8.28	 0.0	 0.0	 0.0	 0.0	 0.0	 0.0	 0.0	 0.0	 0.0	 0.0	 0.0;
	100	 130.0	 -26.0	 59.0	 -26.0	 1.03538	 100.0	 1	 130.0	 26.0	 0.0	 0.0	 0.0	 0.0	 0.0	 0.0	 0.0	 0.0	 0.0	 0.0	 0.0;
	707	 21.0	 -8.0	 8.0	 -8.0	 1.05018	 100.0	 1	 21.0	 4.2	 0.0	 0.0	 0.0	 0.0	 0.0	 0.0	 0.0	 0.0	 0.0	 0.0	 0.0;
	973	 -0.0	 0.0	 0.0	 0.0	 1.06876	 100.0	 0	 0.0	 -8.0	 0.0	 0.0	 0.0	 0.0	 0.0	 0.0	 0.0	 0.0	 0.0	 0.0	 0.0;
	973	 53.0	 -8.251	 17.0	 -10.0	 1.06876	 100.0	 1	 53.0	 10.6	 0.0	 0.0	 0.0	 0.0	 0.0	 0.0	 0.0	 0.0	 0.0	 0.0	 0.0;
	1118	 55.0	 0.0	 0.0	 0.0	 1.0337	 100.0	 1	 55.0	 11.0	 0.0	 0.0	 0.0	 0.0	 0.0	 0.0	 0.0	 0.0	 0.0	 0.0	 0.0;
	897	 27.0	 10.0	 10.0	 -3.0	 0.97251	 100.0	 1	 27.0	 5.4	 0.0	 0.0	 0.0	 0.0	 0.0	 0.0	 0.0	 0.0	 0.0	 0.0	 0.0;
	897	 27.0	 10.0	 10.0	 -3.0	 0.97251	 100.0	 1	 27.0	 5.4	 0.0	 0.0	 0.0	 0.0	 0.0	 0.0	 0.0	 0.0	 0.0	 0.0	 0.0;
	58	 0.0	 0.0	 2.0	 1.9	 1.06965	 100.0	 0	 6.0	 1.2	 0.0	 0.0	 0.0	 0.0	 0.0	 0.0	 0.0	 0.0	 0.0	 0.0	 0.0;
	82	 25.3	 0.0	 0.0	 0.0	 1.03023	 100.0	 1	 25.3	 5.06	 0.0	 0.0	 0.0	 0.0	 0.0	 0.0	 0.0	 0.0	 0.0	 0.0	 0.0;
	474	 52.0	 -13.0	 10.0	 -13.0	 1.03805	 100.0	 1	 52.0	 10.4	 0.0	 0.0	 0.0	 0.0	 0.0	 0.0	 0.0	 0.0	 0.0	 0.0	 0.0;
	1221	 11.607	 -12.177	 35.0	 -35.0	 1.04804	 100.0	 1	 58.0	 11.6	 0.0	 0.0	 0.0	 0.0	 0.0	 0.0	 0.0	 0.0	 0.0	 0.0	 0.0;
	355	 62.0	 -40.0	 40.0	 -40.0	 1.05009	 100.0	 1	 62.0	 12.4	 0.0	 0.0	 0.0	 0.0	 0.0	 0.0	 0.0	 0.0	 0.0	 0.0	 0.0;
	471	 52.198	 0.0	 1.0	 0.0	 1.04299	 100.0	 1	 78.0	 15.6	 0.0	 0.0	 0.0	 0.0	 0.0	 0.0	 0.0	 0.0	 0.0	 0.0	 0.0;
	1321	 11.0	 0.9	 1.0	 0.9	 1.07198	 100.0	 1	 11.0	 2.2	 0.0	 0.0	 0.0	 0.0	 0.0	 0.0	 0.0	 0.0	 0.0	 0.0	 0.0;
	1321	 2.5	 -0.1	 0.1	 -0.1	 1.07198	 100.0	 1	 2.5	 0.0	 0.0	 0.0	 0.0	 0.0	 0.0	 0.0	 0.0	 0.0	 0.0	 0.0	 0.0;
	1829	 23.5	 3.717	 8.0	 -8.0	 1.02875	 100.0	 1	 23.5	 4.7	 0.0	 0.0	 0.0	 0.0	 0.0	 0.0	 0.0	 0.0	 0.0	 0.0	 0.0;
	1005	 39.0	 -7.054	 19.0	 -19.0	 1.07094	 100.0	 1	 39.0	 7.8	 0.0	 0.0	 0.0	 0.0	 0.0	 0.0	 0.0	 0.0	 0.0	 0.0	 0.0;
	14	 27.6	 0.0	 0.0	 0.0	 1.03441	 100.0	 1	 27.6	 5.52	 0.0	 0.0	 0.0	 0.0	 0.0	 0.0	 0.0	 0.0	 0.0	 0.0	 0.0;
	14	 24.0	 0.0	 0.0	 0.0	 1.03441	 100.0	 1	 24.0	 4.8	 0.0	 0.0	 0.0	 0.0	 0.0	 0.0	 0.0	 0.0	 0.0	 0.0	 0.0;
	1628	 238.335	 -74.194	 155.3	 -217.55	 0.95	 100.0	 1	 670.0	 200.0	 0.0	 0.0	 0.0	 0.0	 0.0	 0.0	 0.0	 0.0	 0.0	 0.0	 0.0;
	1629	 538.249	 -49.196	 231.39	 -190.58	 0.95	 100.0	 1	 700.0	 140.0	 0.0	 0.0	 0.0	 0.0	 0.0	 0.0	 0.0	 0.0	 0.0	 0.0	 0.0;
	1844	 27.0	 -15.38	 24.62	 -15.38	 0.88764	 100.0	 1	 27.0	 5.4	 0.0	 0.0	 0.0	 0.0	 0.0	 0.0	 0.0	 0.0	 0.0	 0.0	 0.0;
	1630	 86.0	 8.479	 43.86	 -8.5	 0.94032	 100.0	 1	 86.0	 17.2	 0.0	 0.0	 0.0	 0.0	 0.0	 0.0	 0.0	 0.0	 0.0	 0.0	 0.0;
	1631	 49.0	 6.401	 22.19	 -9.73	 0.94452	 100.0	 1	 49.0	 9.8	 0.0	 0.0	 0.0	 0.0	 0.0	 0.0	 0.0	 0.0	 0.0	 0.0	 0.0;
	1846	 32.0	 -8.36	 8.36	 -8.36	 1.00496	 100.0	 1	 32.0	 6.4	 0.0	 0.0	 0.0	 0.0	 0.0	 0.0	 0.0	 0.0	 0.0	 0.0	 0.0;
	1632	 32.0	 -8.36	 8.36	 -8.36	 1.00496	 100.0	 1	 32.0	 6.4	 0.0	 0.0	 0.0	 0.0	 0.0	 0.0	 0.0	 0.0	 0.0	 0.0	 0.0;
	1847	 32.0	 -8.57	 8.15	 -8.57	 1.00416	 100.0	 1	 32.0	 6.4	 0.0	 0.0	 0.0	 0.0	 0.0	 0.0	 0.0	 0.0	 0.0	 0.0	 0.0;
	1848	 32.0	 -8.57	 8.15	 -8.57	 1.00416	 100.0	 1	 32.0	 6.4	 0.0	 0.0	 0.0	 0.0	 0.0	 0.0	 0.0	 0.0	 0.0	 0.0	 0.0;
	1852	 92.0	 -35.43	 54.57	 -35.43	 0.9131	 100.0	 1	 92.0	 18.4	 0.0	 0.0	 0.0	 0.0	 0.0	 0.0	 0.0	 0.0	 0.0	 0.0	 0.0;
	1854	 92.0	 56.48	 56.48	 -33.52	 1.06861	 100.0	 1	 92.0	 18.4	 0.0	 0.0	 0.0	 0.0	 0.0	 0.0	 0.0	 0.0	 0.0	 0.0	 0.0;
	1633	 945.08	 73.257	 421.39	 -376.62	 1.00215	 100.0	 1	 945.08	 255.07	 0.0	 0.0	 0.0	 0.0	 0.0	 0.0	 0.0	 0.0	 0.0	 0.0	 0.0;
	1634	 978.04	 33.643	 428.83	 -369.21	 0.99653	 100.0	 1	 978.04	 288.05	 0.0	 0.0	 0.0	 0.0	 0.0	 0.0	 0.0	 0.0	 0.0	 0.0	 0.0;
	1635	 976.08	 80.538	 428.07	 -369.92	 1.00261	 100.0	 1	 976.08	 256.08	 0.0	 0.0	 0.0	 0.0	 0.0	 0.0	 0.0	 0.0	 0.0	 0.0	 0.0;
	1636	 943.08	 72.897	 420.86	 -377.13	 1.00212	 100.0	 1	 943.08	 253.07	 0.0	 0.0	 0.0	 0.0	 0.0	 0.0	 0.0	 0.0	 0.0	 0.0	 0.0;
	1637	 156.0	 -6.183	 153.03	 -90.23	 0.95	 100.0	 1	 252.0	 156.0	 0.0	 0.0	 0.0	 0.0	 0.0	 0.0	 0.0	 0.0	 0.0	 0.0	 0.0;
	1638	 154.0	 -6.118	 152.44	 -90.81	 0.95	 100.0	 1	 250.0	 154.0	 0.0	 0.0	 0.0	 0.0	 0.0	 0.0	 0.0	 0.0	 0.0	 0.0	 0.0;
	1639	 250.0	 -39.522	 105.68	 -58.28	 0.95	 100.0	 1	 250.0	 154.0	 0.0	 0.0	 0.0	 0.0	 0.0	 0.0	 0.0	 0.0	 0.0	 0.0	 0.0;
	1640	 305.0	 -76.863	 228.81	 -159.91	 0.95	 100.0	 1	 305.0	 122.0	 0.0	 0.0	 0.0	 0.0	 0.0	 0.0	 0.0	 0.0	 0.0	 0.0	 0.0;
	1641	 155.0	 -41.369	 94.32	 -74.64	 0.95	 100.0	 1	 155.0	 89.0	 0.0	 0.0	 0.0	 0.0	 0.0	 0.0	 0.0	 0.0	 0.0	 0.0	 0.0;
	1642	 11.6	 -18.77	 21.65	 -18.77	 0.9446	 100.0	 1	 58.0	 11.6	 0.0	 0.0	 0.0	 0.0	 0.0	 0.0	 0.0	 0.0	 0.0	 0.0	 0.0;
	1643	 11.6	 -10.66	 16.01	 -10.66	 0.95665	 100.0	 1	 58.0	 11.6	 0.0	 0.0	 0.0	 0.0	 0.0	 0.0	 0.0	 0.0	 0.0	 0.0	 0.0;
	1855	 11.6	 -18.95	 21.47	 -18.95	 0.94428	 100.0	 1	 58.0	 11.6	 0.0	 0.0	 0.0	 0.0	 0.0	 0.0	 0.0	 0.0	 0.0	 0.0	 0.0;
	1644	 11.6	 -10.62	 16.05	 -10.62	 0.95673	 100.0	 1	 58.0	 11.6	 0.0	 0.0	 0.0	 0.0	 0.0	 0.0	 0.0	 0.0	 0.0	 0.0	 0.0;
	1645	 58.0	 -10.86	 15.81	 -10.86	 0.95023	 100.0	 1	 58.0	 11.6	 0.0	 0.0	 0.0	 0.0	 0.0	 0.0	 0.0	 0.0	 0.0	 0.0	 0.0;
	1646	 263.0	 15.851	 146.45	 -90.18	 0.95	 100.0	 1	 263.0	 133.0	 0.0	 0.0	 0.0	 0.0	 0.0	 0.0	 0.0	 0.0	 0.0	 0.0	 0.0;
	1647	 44.96	 3.251	 50.67	 -38.09	 1.01999	 100.0	 1	 44.96	 8.99	 0.0	 0.0	 0.0	 0.0	 0.0	 0.0	 0.0	 0.0	 0.0	 0.0	 0.0;
	1861	 31.072	 0.601	 19.75	 -16.25	 1.04292	 100.0	 1	 32.0	 6.4	 0.0	 0.0	 0.0	 0.0	 0.0	 0.0	 0.0	 0.0	 0.0	 0.0	 0.0;
	1648	 525.652	 -118.494	 530.99	 -158.23	 0.93167	 100.0	 1	 936.29	 266.29	 0.0	 0.0	 0.0	 0.0	 0.0	 0.0	 0.0	 0.0	 0.0	 0.0	 0.0;
	1649	 942.82	 -101.072	 533.69	 -156.07	 0.92908	 100.0	 1	 942.82	 272.82	 0.0	 0.0	 0.0	 0.0	 0.0	 0.0	 0.0	 0.0	 0.0	 0.0	 0.0;
	1650	 898.937	 -125.292	 537.68	 -152.82	 0.92508	 100.0	 1	 924.28	 274.28	 0.0	 0.0	 0.0	 0.0	 0.0	 0.0	 0.0	 0.0	 0.0	 0.0	 0.0;
	1651	 922.8	 -29.839	 529.89	 -160.89	 0.93921	 100.0	 1	 922.8	 272.8	 0.0	 0.0	 0.0	 0.0	 0.0	 0.0	 0.0	 0.0	 0.0	 0.0	 0.0;
	1652	 318.0	 -118.995	 681.04	 -153.0	 0.94518	 100.0	 1	 1308.0	 318.0	 0.0	 0.0	 0.0	 0.0	 0.0	 0.0	 0.0	 0.0	 0.0	 0.0	 0.0;
	1862	 318.0	 -95.03	 681.03	 -153.0	 0.94762	 100.0	 1	 1308.0	 318.0	 0.0	 0.0	 0.0	 0.0	 0.0	 0.0	 0.0	 0.0	 0.0	 0.0	 0.0;
	1653	 35.0	 -1.92	 6.08	 -1.92	 1.0305	 100.0	 1	 35.0	 7.0	 0.0	 0.0	 0.0	 0.0	 0.0	 0.0	 0.0	 0.0	 0.0	 0.0	 0.0;
	1654	 35.0	 -1.79	 6.21	 -1.79	 1.03075	 100.0	 1	 35.0	 7.0	 0.0	 0.0	 0.0	 0.0	 0.0	 0.0	 0.0	 0.0	 0.0	 0.0	 0.0;
	1655	 35.0	 -1.79	 6.21	 -1.79	 1.03075	 100.0	 1	 35.0	 7.0	 0.0	 0.0	 0.0	 0.0	 0.0	 0.0	 0.0	 0.0	 0.0	 0.0	 0.0;
	1656	 35.0	 -1.89	 6.11	 -1.89	 1.03055	 100.0	 1	 35.0	 7.0	 0.0	 0.0	 0.0	 0.0	 0.0	 0.0	 0.0	 0.0	 0.0	 0.0	 0.0;
	1657	 35.0	 -1.89	 6.11	 -1.89	 1.03055	 100.0	 1	 35.0	 7.0	 0.0	 0.0	 0.0	 0.0	 0.0	 0.0	 0.0	 0.0	 0.0	 0.0	 0.0;
	1658	 35.0	 -1.89	 6.11	 -1.89	 1.03055	 100.0	 1	 35.0	 7.0	 0.0	 0.0	 0.0	 0.0	 0.0	 0.0	 0.0	 0.0	 0.0	 0.0	 0.0;
	1863	 7.39	 -0.234	 18.45	 -13.16	 0.9773	 100.0	 1	 36.97	 7.39	 0.0	 0.0	 0.0	 0.0	 0.0	 0.0	 0.0	 0.0	 0.0	 0.0	 0.0;
	1659	 7.39	 -0.234	 18.45	 -13.16	 0.9773	 100.0	 1	 36.97	 7.39	 0.0	 0.0	 0.0	 0.0	 0.0	 0.0	 0.0	 0.0	 0.0	 0.0	 0.0;
	1660	 7.39	 0.675	 18.45	 -11.35	 0.98039	 100.0	 1	 36.97	 7.39	 0.0	 0.0	 0.0	 0.0	 0.0	 0.0	 0.0	 0.0	 0.0	 0.0	 0.0;
	1661	 7.39	 0.414	 18.11	 -11.7	 0.97951	 100.0	 1	 36.97	 7.39	 0.0	 0.0	 0.0	 0.0	 0.0	 0.0	 0.0	 0.0	 0.0	 0.0	 0.0;
	1662	 7.39	 -0.323	 18.21	 -13.41	 0.97702	 100.0	 1	 36.97	 7.39	 0.0	 0.0	 0.0	 0.0	 0.0	 0.0	 0.0	 0.0	 0.0	 0.0	 0.0;
	1663	 7.39	 -0.069	 18.55	 -13.05	 0.97789	 100.0	 1	 36.97	 7.39	 0.0	 0.0	 0.0	 0.0	 0.0	 0.0	 0.0	 0.0	 0.0	 0.0	 0.0;
	1865	 20.0	 -7.68	 12.32	 -7.68	 0.9115	 100.0	 1	 20.0	 4.0	 0.0	 0.0	 0.0	 0.0	 0.0	 0.0	 0.0	 0.0	 0.0	 0.0	 0.0;
	1866	 20.797	 2.771	 17.85	 -13.79	 0.98516	 100.0	 1	 30.98	 6.2	 0.0	 0.0	 0.0	 0.0	 0.0	 0.0	 0.0	 0.0	 0.0	 0.0	 0.0;
	1664	 20.797	 2.771	 17.85	 -13.79	 0.98516	 100.0	 1	 30.98	 6.2	 0.0	 0.0	 0.0	 0.0	 0.0	 0.0	 0.0	 0.0	 0.0	 0.0	 0.0;
	1665	 20.799	 2.887	 18.01	 -13.62	 0.98555	 100.0	 1	 30.98	 6.2	 0.0	 0.0	 0.0	 0.0	 0.0	 0.0	 0.0	 0.0	 0.0	 0.0	 0.0;
	1867	 20.799	 2.887	 18.01	 -13.62	 0.98555	 100.0	 1	 30.98	 6.2	 0.0	 0.0	 0.0	 0.0	 0.0	 0.0	 0.0	 0.0	 0.0	 0.0	 0.0;
	1666	 17.643	 1.674	 17.89	 -13.75	 0.98216	 100.0	 1	 30.98	 6.2	 0.0	 0.0	 0.0	 0.0	 0.0	 0.0	 0.0	 0.0	 0.0	 0.0	 0.0;
	1868	 17.642	 1.565	 17.74	 -13.91	 0.98179	 100.0	 1	 30.98	 6.2	 0.0	 0.0	 0.0	 0.0	 0.0	 0.0	 0.0	 0.0	 0.0	 0.0	 0.0;
	1667	 490.959	 -105.14	 656.06	 -184.89	 0.94298	 100.0	 1	 1330.0	 337.0	 0.0	 0.0	 0.0	 0.0	 0.0	 0.0	 0.0	 0.0	 0.0	 0.0	 0.0;
	1668	 367.0	 -118.407	 656.92	 -183.9	 0.94004	 100.0	 1	 1360.0	 367.0	 0.0	 0.0	 0.0	 0.0	 0.0	 0.0	 0.0	 0.0	 0.0	 0.0	 0.0;
	1669	 367.0	 -144.664	 648.03	 -192.8	 0.93742	 100.0	 1	 1360.0	 367.0	 0.0	 0.0	 0.0	 0.0	 0.0	 0.0	 0.0	 0.0	 0.0	 0.0	 0.0;
	1670	 1.5	 -65.675	 281.46	 -103.91	 0.9164	 100.0	 1	 1.5	 1.4	 0.0	 0.0	 0.0	 0.0	 0.0	 0.0	 0.0	 0.0	 0.0	 0.0	 0.0;
	1873	 240.0	 -45.97	 94.03	 -45.97	 0.93268	 100.0	 1	 240.0	 48.0	 0.0	 0.0	 0.0	 0.0	 0.0	 0.0	 0.0	 0.0	 0.0	 0.0	 0.0;
	1874	 240.0	 -44.89	 95.11	 -44.89	 0.93333	 100.0	 1	 240.0	 48.0	 0.0	 0.0	 0.0	 0.0	 0.0	 0.0	 0.0	 0.0	 0.0	 0.0	 0.0;
	1671	 942.72	 -5.302	 524.6	 -107.2	 0.95	 100.0	 1	 942.72	 232.72	 0.0	 0.0	 0.0	 0.0	 0.0	 0.0	 0.0	 0.0	 0.0	 0.0	 0.0;
	1673	 953.74	 -5.035	 511.64	 -99.08	 0.95	 100.0	 1	 953.74	 243.74	 0.0	 0.0	 0.0	 0.0	 0.0	 0.0	 0.0	 0.0	 0.0	 0.0	 0.0;
	1674	 952.74	 -11.464	 555.41	 -99.32	 0.94914	 100.0	 1	 952.74	 242.74	 0.0	 0.0	 0.0	 0.0	 0.0	 0.0	 0.0	 0.0	 0.0	 0.0	 0.0;
	1675	 719.504	 -17.19	 682.28	 -126.36	 0.94383	 100.0	 1	 1503.0	 403.0	 0.0	 0.0	 0.0	 0.0	 0.0	 0.0	 0.0	 0.0	 0.0	 0.0	 0.0;
	1676	 606.623	 16.379	 687.17	 -121.66	 0.95	 100.0	 1	 1503.0	 403.0	 0.0	 0.0	 0.0	 0.0	 0.0	 0.0	 0.0	 0.0	 0.0	 0.0	 0.0;
	1875	 1498.0	 63.888	 409.45	 -352.29	 0.97343	 100.0	 1	 1498.0	 398.0	 0.0	 0.0	 0.0	 0.0	 0.0	 0.0	 0.0	 0.0	 0.0	 0.0	 0.0;
	1677	 1498.0	 43.563	 409.42	 -352.33	 0.97146	 100.0	 1	 1498.0	 398.0	 0.0	 0.0	 0.0	 0.0	 0.0	 0.0	 0.0	 0.0	 0.0	 0.0	 0.0;
	2022	 75.0	 38.329	 51.88	 -38.44	 1.1	 100.0	 1	 75.0	 15.0	 0.0	 0.0	 0.0	 0.0	 0.0	 0.0	 0.0	 0.0	 0.0	 0.0	 0.0;
	1876	 75.0	 38.329	 51.88	 -38.44	 1.1	 100.0	 1	 75.0	 15.0	 0.0	 0.0	 0.0	 0.0	 0.0	 0.0	 0.0	 0.0	 0.0	 0.0	 0.0;
	1877	 75.0	 38.329	 51.88	 -38.44	 1.1	 100.0	 1	 75.0	 15.0	 0.0	 0.0	 0.0	 0.0	 0.0	 0.0	 0.0	 0.0	 0.0	 0.0	 0.0;
	1878	 75.0	 38.329	 51.88	 -38.44	 1.1	 100.0	 1	 75.0	 15.0	 0.0	 0.0	 0.0	 0.0	 0.0	 0.0	 0.0	 0.0	 0.0	 0.0	 0.0;
	1678	 95.0	 -2.317	 104.12	 -61.4	 0.95	 100.0	 1	 95.0	 8.5	 0.0	 0.0	 0.0	 0.0	 0.0	 0.0	 0.0	 0.0	 0.0	 0.0	 0.0;
	1679	 95.0	 -2.317	 103.94	 -61.58	 0.95	 100.0	 1	 95.0	 8.5	 0.0	 0.0	 0.0	 0.0	 0.0	 0.0	 0.0	 0.0	 0.0	 0.0	 0.0;
	1680	 148.2	 -7.249	 86.67	 -10.65	 0.95	 100.0	 1	 148.2	 4.2	 0.0	 0.0	 0.0	 0.0	 0.0	 0.0	 0.0	 0.0	 0.0	 0.0	 0.0;
	1681	 685.0	 73.605	 220.22	 -59.17	 0.95	 100.0	 1	 685.0	 180.0	 0.0	 0.0	 0.0	 0.0	 0.0	 0.0	 0.0	 0.0	 0.0	 0.0	 0.0;
	1682	 610.0	 -98.378	 330.28	 -165.24	 0.91044	 100.0	 1	 610.0	 310.0	 0.0	 0.0	 0.0	 0.0	 0.0	 0.0	 0.0	 0.0	 0.0	 0.0	 0.0;
	1683	 610.0	 -115.513	 297.67	 -191.83	 0.91005	 100.0	 1	 610.0	 310.0	 0.0	 0.0	 0.0	 0.0	 0.0	 0.0	 0.0	 0.0	 0.0	 0.0	 0.0;
	1684	 251.428	 -21.124	 254.82	 -293.65	 0.95913	 100.0	 1	 700.0	 205.0	 0.0	 0.0	 0.0	 0.0	 0.0	 0.0	 0.0	 0.0	 0.0	 0.0	 0.0;
	1881	 50.0	 -13.8	 15.6	 -13.8	 0.90357	 100.0	 1	 50.0	 10.0	 0.0	 0.0	 0.0	 0.0	 0.0	 0.0	 0.0	 0.0	 0.0	 0.0	 0.0;
	1882	 10.0	 -14.2	 15.2	 -14.2	 0.91199	 100.0	 1	 50.0	 10.0	 0.0	 0.0	 0.0	 0.0	 0.0	 0.0	 0.0	 0.0	 0.0	 0.0	 0.0;
	1685	 50.0	 -13.6	 15.81	 -13.6	 0.90414	 100.0	 1	 50.0	 10.0	 0.0	 0.0	 0.0	 0.0	 0.0	 0.0	 0.0	 0.0	 0.0	 0.0	 0.0;
	1883	 50.0	 -13.6	 15.81	 -13.6	 0.90414	 100.0	 1	 50.0	 10.0	 0.0	 0.0	 0.0	 0.0	 0.0	 0.0	 0.0	 0.0	 0.0	 0.0	 0.0;
	1884	 50.0	 -13.6	 15.81	 -13.6	 0.90414	 100.0	 1	 50.0	 10.0	 0.0	 0.0	 0.0	 0.0	 0.0	 0.0	 0.0	 0.0	 0.0	 0.0	 0.0;
	1885	 50.0	 -13.8	 15.6	 -13.8	 0.90357	 100.0	 1	 50.0	 10.0	 0.0	 0.0	 0.0	 0.0	 0.0	 0.0	 0.0	 0.0	 0.0	 0.0	 0.0;
	1686	 452.907	 -9.968	 532.91	 -90.14	 0.96093	 100.0	 1	 1000.0	 280.0	 0.0	 0.0	 0.0	 0.0	 0.0	 0.0	 0.0	 0.0	 0.0	 0.0	 0.0;
	1687	 452.907	 -9.977	 535.45	 -87.61	 0.96093	 100.0	 1	 1000.0	 280.0	 0.0	 0.0	 0.0	 0.0	 0.0	 0.0	 0.0	 0.0	 0.0	 0.0	 0.0;
	1688	 452.907	 -10.051	 567.71	 -88.3	 0.96094	 100.0	 1	 1000.0	 280.0	 0.0	 0.0	 0.0	 0.0	 0.0	 0.0	 0.0	 0.0	 0.0	 0.0	 0.0;
	1689	 0.0	 0.0	 559.16	 -96.85	 0.9638	 100.0	 0	 930.0	 280.0	 0.0	 0.0	 0.0	 0.0	 0.0	 0.0	 0.0	 0.0	 0.0	 0.0	 0.0;
	1888	 57.0	 17.349	 17.35	 -17.35	 1.02227	 100.0	 1	 57.0	 11.4	 0.0	 0.0	 0.0	 0.0	 0.0	 0.0	 0.0	 0.0	 0.0	 0.0	 0.0;
	1690	 303.98	 27.631	 219.77	 -155.72	 0.953	 100.0	 1	 451.0	 239.0	 0.0	 0.0	 0.0	 0.0	 0.0	 0.0	 0.0	 0.0	 0.0	 0.0	 0.0;
	1691	 63.0	 -2.434	 51.25	 -10.63	 0.95512	 100.0	 1	 63.0	 21.0	 0.0	 0.0	 0.0	 0.0	 0.0	 0.0	 0.0	 0.0	 0.0	 0.0	 0.0;
	1692	 248.8	 -43.713	 258.1	 -182.18	 0.97171	 100.0	 1	 433.8	 248.8	 0.0	 0.0	 0.0	 0.0	 0.0	 0.0	 0.0	 0.0	 0.0	 0.0	 0.0;
	1693	 168.169	 55.369	 71.21	 -44.25	 1.00887	 100.0	 1	 168.17	 81.81	 0.0	 0.0	 0.0	 0.0	 0.0	 0.0	 0.0	 0.0	 0.0	 0.0	 0.0;
	1694	 164.258	 51.362	 73.34	 -37.69	 1.00598	 100.0	 1	 168.6	 82.28	 0.0	 0.0	 0.0	 0.0	 0.0	 0.0	 0.0	 0.0	 0.0	 0.0	 0.0;
	1695	 243.855	 89.566	 113.53	 -43.7	 1.00972	 100.0	 1	 248.21	 53.91	 0.0	 0.0	 0.0	 0.0	 0.0	 0.0	 0.0	 0.0	 0.0	 0.0	 0.0;
	1696	 238.089	 85.235	 100.92	 -59.36	 1.00733	 100.0	 1	 238.09	 43.97	 0.0	 0.0	 0.0	 0.0	 0.0	 0.0	 0.0	 0.0	 0.0	 0.0	 0.0;
	1697	 229.69	 -37.689	 525.14	 -88.61	 0.95	 100.0	 1	 919.69	 229.69	 0.0	 0.0	 0.0	 0.0	 0.0	 0.0	 0.0	 0.0	 0.0	 0.0	 0.0;
	1698	 229.69	 -37.689	 525.14	 -88.61	 0.95	 100.0	 1	 919.69	 229.69	 0.0	 0.0	 0.0	 0.0	 0.0	 0.0	 0.0	 0.0	 0.0	 0.0	 0.0;
	1699	 236.69	 -37.508	 526.77	 -86.99	 0.95	 100.0	 1	 926.69	 236.69	 0.0	 0.0	 0.0	 0.0	 0.0	 0.0	 0.0	 0.0	 0.0	 0.0	 0.0;
	1700	 251.69	 -38.208	 530.29	 -83.48	 0.95	 100.0	 1	 941.69	 251.69	 0.0	 0.0	 0.0	 0.0	 0.0	 0.0	 0.0	 0.0	 0.0	 0.0	 0.0;
	1701	 32.0	 -9.68	 10.32	 -9.68	 0.96077	 100.0	 1	 32.0	 6.4	 0.0	 0.0	 0.0	 0.0	 0.0	 0.0	 0.0	 0.0	 0.0	 0.0	 0.0;
	1702	 39.88	 1.961	 19.22	 -17.67	 0.96455	 100.0	 1	 39.88	 7.98	 0.0	 0.0	 0.0	 0.0	 0.0	 0.0	 0.0	 0.0	 0.0	 0.0	 0.0;
	1703	 39.88	 1.961	 19.34	 -17.74	 0.96455	 100.0	 1	 39.88	 7.98	 0.0	 0.0	 0.0	 0.0	 0.0	 0.0	 0.0	 0.0	 0.0	 0.0	 0.0;
	1889	 39.88	 1.961	 19.24	 -17.66	 0.96455	 100.0	 1	 39.88	 7.98	 0.0	 0.0	 0.0	 0.0	 0.0	 0.0	 0.0	 0.0	 0.0	 0.0	 0.0;
	1704	 1380.0	 209.27	 398.39	 -396.86	 1.00052	 100.0	 1	 1380.0	 340.0	 0.0	 0.0	 0.0	 0.0	 0.0	 0.0	 0.0	 0.0	 0.0	 0.0	 0.0;
	1705	 1380.0	 232.205	 371.08	 -424.16	 1.00277	 100.0	 1	 1380.0	 340.0	 0.0	 0.0	 0.0	 0.0	 0.0	 0.0	 0.0	 0.0	 0.0	 0.0	 0.0;
	1890	 24.0	 5.35	 5.35	 -2.57	 0.99126	 100.0	 1	 24.0	 4.8	 0.0	 0.0	 0.0	 0.0	 0.0	 0.0	 0.0	 0.0	 0.0	 0.0	 0.0;
	1891	 24.0	 5.48	 5.48	 -2.43	 0.99192	 100.0	 1	 24.0	 4.8	 0.0	 0.0	 0.0	 0.0	 0.0	 0.0	 0.0	 0.0	 0.0	 0.0	 0.0;
	1892	 24.0	 5.0	 5.0	 -2.93	 0.98947	 100.0	 1	 24.0	 4.8	 0.0	 0.0	 0.0	 0.0	 0.0	 0.0	 0.0	 0.0	 0.0	 0.0	 0.0;
	1706	 24.0	 5.29	 5.29	 -2.63	 0.99095	 100.0	 1	 24.0	 4.8	 0.0	 0.0	 0.0	 0.0	 0.0	 0.0	 0.0	 0.0	 0.0	 0.0	 0.0;
	1707	 23.99	 10.0	 10.0	 -4.98	 1.02696	 100.0	 1	 23.99	 4.8	 0.0	 0.0	 0.0	 0.0	 0.0	 0.0	 0.0	 0.0	 0.0	 0.0	 0.0;
	2026	 23.99	 8.26	 8.26	 -6.79	 1.01902	 100.0	 1	 23.99	 4.8	 0.0	 0.0	 0.0	 0.0	 0.0	 0.0	 0.0	 0.0	 0.0	 0.0	 0.0;
	1898	 23.99	 10.17	 10.17	 -4.8	 1.02773	 100.0	 1	 23.99	 4.8	 0.0	 0.0	 0.0	 0.0	 0.0	 0.0	 0.0	 0.0	 0.0	 0.0	 0.0;
	1708	 23.99	 1.81	 1.81	 1.8	 0.98845	 100.0	 1	 23.99	 4.8	 0.0	 0.0	 0.0	 0.0	 0.0	 0.0	 0.0	 0.0	 0.0	 0.0	 0.0;
	1709	 23.99	 10.16	 10.16	 -4.81	 1.02768	 100.0	 1	 23.99	 4.8	 0.0	 0.0	 0.0	 0.0	 0.0	 0.0	 0.0	 0.0	 0.0	 0.0	 0.0;
	1710	 26.378	 4.193	 12.23	 -7.55	 0.99776	 100.0	 1	 28.98	 5.8	 0.0	 0.0	 0.0	 0.0	 0.0	 0.0	 0.0	 0.0	 0.0	 0.0	 0.0;
	1711	 26.378	 4.261	 12.31	 -7.46	 0.99803	 100.0	 1	 28.98	 5.8	 0.0	 0.0	 0.0	 0.0	 0.0	 0.0	 0.0	 0.0	 0.0	 0.0	 0.0;
	1712	 1308.0	 -2.033	 615.09	 -439.22	 0.98029	 100.0	 1	 1308.0	 288.0	 0.0	 0.0	 0.0	 0.0	 0.0	 0.0	 0.0	 0.0	 0.0	 0.0	 0.0;
	1713	 1308.0	 -7.572	 614.63	 -439.67	 0.97978	 100.0	 1	 1308.0	 288.0	 0.0	 0.0	 0.0	 0.0	 0.0	 0.0	 0.0	 0.0	 0.0	 0.0	 0.0;
	1714	 214.472	 -0.58	 255.9	 -84.1	 0.97402	 100.0	 1	 458.26	 89.26	 0.0	 0.0	 0.0	 0.0	 0.0	 0.0	 0.0	 0.0	 0.0	 0.0	 0.0;
	1715	 370.445	 56.361	 524.88	 -98.23	 0.95	 100.0	 1	 947.0	 237.0	 0.0	 0.0	 0.0	 0.0	 0.0	 0.0	 0.0	 0.0	 0.0	 0.0	 0.0;
	1716	 375.453	 56.603	 528.27	 -94.91	 0.95	 100.0	 1	 947.0	 267.0	 0.0	 0.0	 0.0	 0.0	 0.0	 0.0	 0.0	 0.0	 0.0	 0.0	 0.0;
	1717	 412.477	 48.858	 529.5	 -93.67	 0.94859	 100.0	 1	 947.0	 237.0	 0.0	 0.0	 0.0	 0.0	 0.0	 0.0	 0.0	 0.0	 0.0	 0.0	 0.0;
	1718	 390.581	 46.71	 528.59	 -94.53	 0.94844	 100.0	 1	 947.0	 237.0	 0.0	 0.0	 0.0	 0.0	 0.0	 0.0	 0.0	 0.0	 0.0	 0.0	 0.0;
	1719	 372.449	 56.449	 529.53	 -93.65	 0.95	 100.0	 1	 947.0	 237.0	 0.0	 0.0	 0.0	 0.0	 0.0	 0.0	 0.0	 0.0	 0.0	 0.0	 0.0;
	1720	 286.848	 52.956	 504.13	 -118.98	 0.95	 100.0	 1	 947.0	 237.0	 0.0	 0.0	 0.0	 0.0	 0.0	 0.0	 0.0	 0.0	 0.0	 0.0	 0.0;
	1721	 240.0	 6.654	 104.81	 -37.31	 0.95	 100.0	 1	 240.0	 125.0	 0.0	 0.0	 0.0	 0.0	 0.0	 0.0	 0.0	 0.0	 0.0	 0.0	 0.0;
	1906	 63.109	 -19.142	 69.06	 -76.42	 0.94861	 100.0	 1	 169.4	 33.88	 0.0	 0.0	 0.0	 0.0	 0.0	 0.0	 0.0	 0.0	 0.0	 0.0	 0.0;
	1907	 63.108	 -19.168	 69.08	 -76.5	 0.94859	 100.0	 1	 169.4	 33.88	 0.0	 0.0	 0.0	 0.0	 0.0	 0.0	 0.0	 0.0	 0.0	 0.0	 0.0;
	1908	 63.108	 -19.189	 68.92	 -76.49	 0.94857	 100.0	 1	 169.4	 33.88	 0.0	 0.0	 0.0	 0.0	 0.0	 0.0	 0.0	 0.0	 0.0	 0.0	 0.0;
	1909	 63.107	 -19.253	 68.97	 -76.69	 0.94851	 100.0	 1	 169.4	 33.88	 0.0	 0.0	 0.0	 0.0	 0.0	 0.0	 0.0	 0.0	 0.0	 0.0	 0.0;
	1910	 63.108	 -19.194	 69.1	 -76.58	 0.94857	 100.0	 1	 169.4	 33.88	 0.0	 0.0	 0.0	 0.0	 0.0	 0.0	 0.0	 0.0	 0.0	 0.0	 0.0;
	1911	 63.108	 -19.179	 69.1	 -76.54	 0.94858	 100.0	 1	 169.4	 33.88	 0.0	 0.0	 0.0	 0.0	 0.0	 0.0	 0.0	 0.0	 0.0	 0.0	 0.0;
	1912	 63.105	 -19.356	 68.67	 -76.85	 0.94842	 100.0	 1	 169.4	 33.88	 0.0	 0.0	 0.0	 0.0	 0.0	 0.0	 0.0	 0.0	 0.0	 0.0	 0.0;
	1913	 63.105	 -19.378	 68.69	 -76.92	 0.9484	 100.0	 1	 169.4	 33.88	 0.0	 0.0	 0.0	 0.0	 0.0	 0.0	 0.0	 0.0	 0.0	 0.0	 0.0;
	1722	 321.373	 12.876	 272.9	 -127.1	 0.95525	 100.0	 1	 456.8	 216.8	 0.0	 0.0	 0.0	 0.0	 0.0	 0.0	 0.0	 0.0	 0.0	 0.0	 0.0;
	1723	 260.0	 -18.713	 159.71	 -80.29	 0.95	 100.0	 1	 260.0	 130.0	 0.0	 0.0	 0.0	 0.0	 0.0	 0.0	 0.0	 0.0	 0.0	 0.0	 0.0;
	1724	 0.0	 0.0	 198.66	 -190.41	 0.96167	 100.0	 0	 585.0	 250.0	 0.0	 0.0	 0.0	 0.0	 0.0	 0.0	 0.0	 0.0	 0.0	 0.0	 0.0;
	1725	 298.631	 7.439	 199.31	 -189.68	 0.95	 100.0	 1	 585.0	 250.0	 0.0	 0.0	 0.0	 0.0	 0.0	 0.0	 0.0	 0.0	 0.0	 0.0	 0.0;
	1919	 19.98	 -16.255	 20.64	 -19.15	 0.95096	 100.0	 1	 19.98	 4.0	 0.0	 0.0	 0.0	 0.0	 0.0	 0.0	 0.0	 0.0	 0.0	 0.0	 0.0;
	1920	 23.98	 -15.844	 20.43	 -19.38	 0.95141	 100.0	 1	 23.98	 4.8	 0.0	 0.0	 0.0	 0.0	 0.0	 0.0	 0.0	 0.0	 0.0	 0.0	 0.0;
	1921	 23.98	 -15.736	 21.0	 -18.66	 0.95178	 100.0	 1	 23.98	 4.8	 0.0	 0.0	 0.0	 0.0	 0.0	 0.0	 0.0	 0.0	 0.0	 0.0	 0.0;
	1922	 23.98	 -15.791	 20.73	 -19.0	 0.95159	 100.0	 1	 23.98	 4.8	 0.0	 0.0	 0.0	 0.0	 0.0	 0.0	 0.0	 0.0	 0.0	 0.0	 0.0;
	1923	 23.98	 -15.433	 21.26	 -18.37	 0.94675	 100.0	 1	 23.98	 4.8	 0.0	 0.0	 0.0	 0.0	 0.0	 0.0	 0.0	 0.0	 0.0	 0.0	 0.0;
	1924	 23.98	 -15.434	 21.26	 -18.37	 0.94676	 100.0	 1	 23.98	 4.8	 0.0	 0.0	 0.0	 0.0	 0.0	 0.0	 0.0	 0.0	 0.0	 0.0	 0.0;
	1726	 7.0	 -8.35	 9.31	 -8.35	 0.9381	 100.0	 1	 35.0	 7.0	 0.0	 0.0	 0.0	 0.0	 0.0	 0.0	 0.0	 0.0	 0.0	 0.0	 0.0;
	1727	 35.0	 -8.54	 9.12	 -8.54	 0.93031	 100.0	 1	 35.0	 7.0	 0.0	 0.0	 0.0	 0.0	 0.0	 0.0	 0.0	 0.0	 0.0	 0.0	 0.0;
	1728	 35.0	 -13.09	 10.16	 -13.09	 0.91396	 100.0	 1	 35.0	 7.0	 0.0	 0.0	 0.0	 0.0	 0.0	 0.0	 0.0	 0.0	 0.0	 0.0	 0.0;
	1928	 7.0	 -8.35	 9.31	 -8.35	 0.9381	 100.0	 1	 35.0	 7.0	 0.0	 0.0	 0.0	 0.0	 0.0	 0.0	 0.0	 0.0	 0.0	 0.0	 0.0;
	1729	 235.0	 -14.992	 104.52	 -144.76	 0.94278	 100.0	 1	 235.0	 120.0	 0.0	 0.0	 0.0	 0.0	 0.0	 0.0	 0.0	 0.0	 0.0	 0.0	 0.0;
	1931	 73.0	 23.71	 47.31	 -36.19	 1.03483	 100.0	 1	 73.0	 14.6	 0.0	 0.0	 0.0	 0.0	 0.0	 0.0	 0.0	 0.0	 0.0	 0.0	 0.0;
	1932	 69.0	 22.123	 51.14	 -32.55	 1.04083	 100.0	 1	 69.0	 13.8	 0.0	 0.0	 0.0	 0.0	 0.0	 0.0	 0.0	 0.0	 0.0	 0.0	 0.0;
...
];

%% generator cost data
%	2	startup	shutdown	n	c(n-1)	...	c0
mpc.gencost = [
	2	 0.0	 0.0	 3	   0.000000	   1.000000	   0.000000;
	2	 0.0	 0.0	 3	   0.000000	   1.000000	   0.000000;
	2	 0.0	 0.0	 3	   0.000000	   1.000000	   0.000000;
	2	 0.0	 0.0	 3	   0.000000	   1.000000	   0.000000;
	2	 0.0	 0.0	 3	   0.000000	   1.000000	   0.000000;
	2	 0.0	 0.0	 3	   0.000000	   1.000000	   0.000000;
	2	 0.0	 0.0	 3	   0.000000	   2.000000	   0.000000;
	2	 0.0	 0.0	 3	   0.000000	   1.000000	   0.000000;
	2	 0.0	 0.0	 3	   0.000000	   2.000000	   0.000000;
	2	 0.0	 0.0	 3	   0.000000	   1.000000	   0.000000;
	2	 0.0	 0.0	 3	   0.000000	   1.000000	   0.000000;
	2	 0.0	 0.0	 3	   0.000000	   1.000000	   0.000000;
	2	 0.0	 0.0	 3	   0.000000	   1.000000	   0.000000;
	2	 0.0	 0.0	 3	   0.000000	   1.000000	   0.000000;
	2	 0.0	 0.0	 3	   0.000000	   1.000000	   0.000000;
	2	 0.0	 0.0	 3	   0.000000	   1.000000	   0.000000;
	2	 0.0	 0.0	 3	   0.000000	   1.000000	   0.000000;
	2	 0.0	 0.0	 3	   0.000000	   1.000000	   0.000000;
	2	 0.0	 0.0	 3	   0.000000	   1.000000	   0.000000;
	2	 0.0	 0.0	 3	   0.000000	   1.000000	   0.000000;
	2	 0.0	 0.0	 3	   0.000000	   1.000000	   0.000000;
	2	 0.0	 0.0	 3	   0.000000	   1.000000	   0.000000;
	2	 0.0	 0.0	 3	   0.000000	   1.000000	   0.000000;
	2	 0.0	 0.0	 3	   0.000000	   1.000000	   0.000000;
	2	 0.0	 0.0	 3	   0.000000	   1.000000	   0.000000;
	2	 0.0	 0.0	 3	   0.000000	   1.000000	   0.000000;
	2	 0.0	 0.0	 3	   0.000000	   1.000000	   0.000000;
	2	 0.0	 0.0	 3	   0.000000	   1.000000	   0.000000;
	2	 0.0	 0.0	 3	   0.000000	   1.000000	   0.000000;
	2	 0.0	 0.0	 3	   0.000000	   1.000000	   0.000000;
	2	 0.0	 0.0	 3	   0.000000	   1.000000	   0.000000;
	2	 0.0	 0.0	 3	   0.000000	   1.000000	   0.000000;
	2	 0.0	 0.0	 3	   0.000000	   2.000000	   0.000000;
	2	 0.0	 0.0	 3	   0.000000	   1.000000	   0.000000;
	2	 0.0	 0.0	 3	   0.000000	   1.000000	   0.000000;
	2	 0.0	 0.0	 3	   0.000000	   1.000000	   0.000000;
	2	 0.0	 0.0	 3	   0.000000	   1.000000	   0.000000;
	2	 0.0	 0.0	 3	   0.000000	   2.000000	   0.000000;
	2	 0.0	 0.0	 3	   0.000000	   1.000000	   0.000000;
	2	 0.0	 0.0	 3	   0.000000	   1.000000	   0.000000;
	2	 0.0	 0.0	 3	   0.000000	   1.000000	   0.000000;
	2	 0.0	 0.0	 3	   0.000000	   1.000000	   0.000000;
	2	 0.0	 0.0	 3	   0.000000	   1.000000	   0.000000;
	2	 0.0	 0.0	 3	   0.000000	   1.000000	   0.000000;
	2	 0.0	 0.0	 3	   0.000000	   1.000000	   0.000000;
	2	 0.0	 0.0	 3	   0.000000	   1.000000	   0.000000;
	2	 0.0	 0.0	 3	   0.000000	   1.000000	   0.000000;
	2	 0.0	 0.0	 3	   0.000000	   1.000000	   0.000000;
	2	 0.0	 0.0	 3	   0.000000	   1.000000	   0.000000;
	2	 0.0	 0.0	 3	   0.000000	   1.000000	   0.000000;
	2	 0.0	 0.0	 3	   0.000000	   1.000000	   0.000000;
	2	 0.0	 0.0	 3	   0.000000	   1.000000	   0.000000;
	2	 0.0	 0.0	 3	   0.000000	   1.000000	   0.000000;
	2	 0.0	 0.0	 3	   0.000000	   1.000000	   0.000000;
	2	 0.0	 0.0	 3	   0.000000	   1.000000	   0.000000;
	2	 0.0	 0.0	 3	   0.000000	   1.000000	   0.000000;
	2	 0.0	 0.0	 3	   0.000000	   1.000000	   0.000000;
	2	 0.0	 0.0	 3	   0.000000	   1.000000	   0.000000;
	2	 0.0	 0.0	 3	   0.000000	   1.000000	   0.000000;
	2	 0.0	 0.0	 3	   0.000000	   1.000000	   0.000000;
	2	 0.0	 0.0	 3	   0.000000	   1.000000	   0.000000;
	2	 0.0	 0.0	 3	   0.000000	   1.000000	   0.000000;
	2	 0.0	 0.0	 3	   0.000000	   1.000000	   0.000000;
	2	 0.0	 0.0	 3	   0.000000	   1.000000	   0.000000;
	2	 0.0	 0.0	 3	   0.000000	   1.000000	   0.000000;
	2	 0.0	 0.0	 3	   0.000000	   1.000000	   0.000000;
	2	 0.0	 0.0	 3	   0.000000	   1.000000	   0.000000;
	2	 0.0	 0.0	 3	   0.000000	   1.000000	   0.000000;
	2	 0.0	 0.0	 3	   0.000000	   1.000000	   0.000000;
	2	 0.0	 0.0	 3	   0.000000	   1.000000	   0.000000;
	2	 0.0	 0.0	 3	   0.000000	   1.000000	   0.000000;
	2	 0.0	 0.0	 3	   0.000000	   1.000000	   0.000000;
	2	 0.0	 0.0	 3	   0.000000	   1.000000	   0.000000;
	2	 0.0	 0.0	 3	   0.000000	   1.000000	   0.000000;
	2	 0.0	 0.0	 3	   0.000000	   1.000000	   0.000000;
	2	 0.0	 0.0	 3	   0.000000	   1.000000	   0.000000;
	2	 0.0	 0.0	 3	   0.000000	   1.000000	   0.000000;
	2	 0.0	 0.0	 3	   0.000000	   1.000000	   0.000000;
	2	 0.0	 0.0	 3	   0.000000	   1.000000	   0.000000;
	2	 0.0	 0.0	 3	   0.000000	   1.000000	   0.000000;
	2	 0.0	 0.0	 3	   0.000000	   1.000000	   0.000000;
	2	 0.0	 0.0	 3	   0.000000	   1.000000	   0.000000;
	2	 0.0	 0.0	 3	   0.000000	   1.000000	   0.000000;
	2	 0.0	 0.0	 3	   0.000000	   1.000000	   0.000000;
	2	 0.0	 0.0	 3	   0.000000	   1.000000	   0.000000;
	2	 0.0	 0.0	 3	   0.000000	   1.000000	   0.000000;
	2	 0.0	 0.0	 3	   0.000000	   1.000000	   0.000000;
	2	 0.0	 0.0	 3	   0.000000	   1.000000	   0.000000;
	2	 0.0	 0.0	 3	   0.000000	   1.000000	   0.000000;
	2	 0.0	 0.0	 3	   0.000000	   1.000000	   0.000000;
	2	 0.0	 0.0	 3	   0.000000	   1.000000	   0.000000;
	2	 0.0	 0.0	 3	   0.000000	   1.000000	   0.000000;
	2	 0.0	 0.0	 3	   0.000000	   1.000000	   0.000000;
	2	 0.0	 0.0	 3	   0.000000	   1.000000	   0.000000;
	2	 0.0	 0.0	 3	   0.000000	   1.000000	   0.000000;
	2	 0.0	 0.0	 3	   0.000000	   1.000000	   0.000000;
	2	 0.0	 0.0	 3	   0.000000	   1.000000	   0.000000;
	2	 0.0	 0.0	 3	   0.000000	   1.000000	   0.000000;
	2	 0.0	 0.0	 3	   0.000000	   1.000000	   0.000000;
	2	 0.0	 0.0	 3	   0.000000	   1.000000	   0.000000;
	2	 0.0	 0.0	 3	   0.000000	   1.000000	   0.000000;
	2	 0.0	 0.0	 3	   0.000000	   1.000000	   0.000000;
	2	 0.0	 0.0	 3	   0.000000	   1.000000	   0.000000;
	2	 0.0	 0.0	 3	   0.000000	   1.000000	   0.000000;
	2	 0.0	 0.0	 3	   0.000000	   1.000000	   0.000000;
	2	 0.0	 0.0	 3	   0.000000	   1.000000	   0.000000;
	2	 0.0	 0.0	 3	   0.000000	   1.000000	   0.000000;
	2	 0.0	 0.0	 3	   0.000000	   1.000000	   0.000000;
	2	 0.0	 0.0	 3	   0.000000	   1.000000	   0.000000;
	2	 0.0	 0.0	 3	   0.000000	   1.000000	   0.000000;
	2	 0.0	 0.0	 3	   0.000000	   1.000000	   0.000000;
	2	 0.0	 0.0	 3	   0.000000	   1.000000	   0.000000;
	2	 0.0	 0.0	 3	   0.000000	   1.000000	   0.000000;
	2	 0.0	 0.0	 3	   0.000000	   1.000000	   0.000000;
	2	 0.0	 0.0	 3	   0.000000	   1.000000	   0.000000;
	2	 0.0	 0.0	 3	   0.000000	   1.000000	   0.000000;
	2	 0.0	 0.0	 3	   0.000000	   1.000000	   0.000000;
	2	 0.0	 0.0	 3	   0.000000	   1.000000	   0.000000;
	2	 0.0	 0.0	 3	   0.000000	   1.000000	   0.000000;
	2	 0.0	 0.0	 3	   0.000000	   1.000000	   0.000000;
	2	 0.0	 0.0	 3	   0.000000	   1.000000	   0.000000;
	2	 0.0	 0.0	 3	   0.000000	   1.000000	   0.000000;
	2	 0.0	 0.0	 3	   0.000000	   1.000000	   0.000000;
	2	 0.0	 0.0	 3	   0.000000	   1.000000	   0.000000;
	2	 0.0	 0.0	 3	   0.000000	   1.000000	   0.000000;
	2	 0.0	 0.0	 3	   0.000000	   1.000000	   0.000000;
	2	 0.0	 0.0	 3	   0.000000	   1.000000	   0.000000;
	2	 0.0	 0.0	 3	   0.000000	   1.000000	   0.000000;
	2	 0.0	 0.0	 3	   0.000000	   1.000000	   0.000000;
	2	 0.0	 0.0	 3	   0.000000	   1.000000	   0.000000;
	2	 0.0	 0.0	 3	   0.000000	   1.000000	   0.000000;
	2	 0.0	 0.0	 3	   0.000000	   1.000000	   0.000000;
	2	 0.0	 0.0	 3	   0.000000	   1.000000	   0.000000;
	2	 0.0	 0.0	 3	   0.000000	   1.000000	   0.000000;
	2	 0.0	 0.0	 3	   0.000000	   1.000000	   0.000000;
	2	 0.0	 0.0	 3	   0.000000	   2.000000	   0.000000;
	2	 0.0	 0.0	 3	   0.000000	   1.000000	   0.000000;
	2	 0.0	 0.0	 3	   0.000000	   1.000000	   0.000000;
	2	 0.0	 0.0	 3	   0.000000	   1.000000	   0.000000;
	2	 0.0	 0.0	 3	   0.000000	   1.000000	   0.000000;
	2	 0.0	 0.0	 3	   0.000000	   1.000000	   0.000000;
	2	 0.0	 0.0	 3	   0.000000	   1.000000	   0.000000;
	2	 0.0	 0.0	 3	   0.000000	   1.000000	   0.000000;
	2	 0.0	 0.0	 3	   0.000000	   1.000000	   0.000000;
	2	 0.0	 0.0	 3	   0.000000	   1.000000	   0.000000;
	2	 0.0	 0.0	 3	   0.000000	   1.000000	   0.000000;
	2	 0.0	 0.0	 3	   0.000000	   1.000000	   0.000000;
	2	 0.0	 0.0	 3	   0.000000	   1.000000	   0.000000;
	2	 0.0	 0.0	 3	   0.000000	   1.000000	   0.000000;
	2	 0.0	 0.0	 3	   0.000000	   1.000000	   0.000000;
	2	 0.0	 0.0	 3	   0.000000	   1.000000	   0.000000;
	2	 0.0	 0.0	 3	   0.000000	   1.000000	   0.000000;
	2	 0.0	 0.0	 3	   0.000000	   1.000000	   0.000000;
	2	 0.0	 0.0	 3	   0.000000	   1.000000	   0.000000;
	2	 0.0	 0.0	 3	   0.000000	   1.000000	   0.000000;
	2	 0.0	 0.0	 3	   0.000000	   1.000000	   0.000000;
	2	 0.0	 0.0	 3	   0.000000	   1.000000	   0.000000;
	2	 0.0	 0.0	 3	   0.000000	   1.000000	   0.000000;
	2	 0.0	 0.0	 3	   0.000000	   1.000000	   0.000000;
	2	 0.0	 0.0	 3	   0.000000	   1.000000	   0.000000;
	2	 0.0	 0.0	 3	   0.000000	   1.000000	   0.000000;
	2	 0.0	 0.0	 3	   0.000000	   1.000000	   0.000000;
	2	 0.0	 0.0	 3	   0.000000	   1.000000	   0.000000;
	2	 0.0	 0.0	 3	   0.000000	   1.000000	   0.000000;
	2	 0.0	 0.0	 3	   0.000000	   1.000000	   0.000000;
	2	 0.0	 0.0	 3	   0.000000	   1.000000	   0.000000;
	2	 0.0	 0.0	 3	   0.000000	   1.000000	   0.000000;
	2	 0.0	 0.0	 3	   0.000000	   1.000000	   0.000000;
	2	 0.0	 0.0	 3	   0.000000	   1.000000	   0.000000;
	2	 0.0	 0.0	 3	   0.000000	   1.000000	   0.000000;
	2	 0.0	 0.0	 3	   0.000000	   1.000000	   0.000000;
	2	 0.0	 0.0	 3	   0.000000	   1.000000	   0.000000;
	2	 0.0	 0.0	 3	   0.000000	   1.000000	   0.000000;
	2	 0.0	 0.0	 3	   0.000000	   1.000000	   0.000000;
	2	 0.0	 0.0	 3	   0.000000	   1.000000	   0.000000;
	2	 0.0	 0.0	 3	   0.000000	   1.000000	   0.000000;
	2	 0.0	 0.0	 3	   0.000000	   1.000000	   0.000000;
	2	 0.0	 0.0	 3	   0.000000	   1.000000	   0.000000;
	2	 0.0	 0.0	 3	   0.000000	   1.000000	   0.000000;
	2	 0.0	 0.0	 3	   0.000000	   1.000000	   0.000000;
	2	 0.0	 0.0	 3	   0.000000	   1.000000	   0.000000;
	2	 0.0	 0.0	 3	   0.000000	   1.000000	   0.000000;
	2	 0.0	 0.0	 3	   0.000000	   1.000000	   0.000000;
	2	 0.0	 0.0	 3	   0.000000	   1.000000	   0.000000;
	2	 0.0	 0.0	 3	   0.000000	   1.000000	   0.000000;
	2	 0.0	 0.0	 3	   0.000000	   2.000000	   0.000000;
	2	 0.0	 0.0	 3	   0.000000	   1.000000	   0.000000;
	2	 0.0	 0.0	 3	   0.000000	   1.000000	   0.000000;
	2	 0.0	 0.0	 3	   0.000000	   1.000000	   0.000000;
	2	 0.0	 0.0	 3	   0.000000	   1.000000	   0.000000;
	2	 0.0	 0.0	 3	   0.000000	   1.000000	   0.000000;
	2	 0.0	 0.0	 3	   0.000000	   1.000000	   0.000000;
	2	 0.0	 0.0	 3	   0.000000	   1.000000	   0.000000;
	2	 0.0	 0.0	 3	   0.000000	   1.000000	   0.000000;
	2	 0.0	 0.0	 3	   0.000000	   1.000000	   0.000000;
	2	 0.0	 0.0	 3	   0.000000	   1.000000	   0.000000;
	2	 0.0	 0.0	 3	   0.000000	   1.000000	   0.000000;
	2	 0.0	 0.0	 3	   0.000000	   1.000000	   0.000000;
	2	 0.0	 0.0	 3	   0.000000	   1.000000	   0.000000;
	2	 0.0	 0.0	 3	   0.000000	   1.000000	   0.000000;
...
];

%% branch data
%	fbus	tbus	r	x	b	rateA	rateB	rateC	ratio	angle	status	angmin	angmax
mpc.branch = [
	1833	 1	 0.002607	 0.017462	 0.0324	 540.0	 540.0	 540.0	 1.0	 0.0	 1	 -30.0	 30.0;
	29	 2	 2.1e-05	 0.000125	 0.1386	 737.0	 737.0	 737.0	 1.0	 0.0	 1	 -30.0	 30.0;
	675	 2	 0.000145	 0.001877	 0.0635	 2487.0	 2487.0	 2487.0	 1.0	 0.0	 1	 -30.0	 30.0;
	1271	 2	 0.000319	 0.003234	 0.0838	 1841.0	 1841.0	 1841.0	 1.0	 0.0	 1	 -30.0	 30.0;
	30	 2	 2.1e-05	 0.000125	 0.1386	 737.0	 737.0	 737.0	 1.0	 0.0	 1	 -30.0	 30.0;
	142	 3	 0.006163	 0.041067	 0.0759	 446.0	 446.0	 446.0	 1.0	 0.0	 1	 -30.0	 30.0;
	677	 3	 0.000652	 0.004369	 0.0081	 558.0	 558.0	 558.0	 1.0	 0.0	 1	 -30.0	 30.0;
	1048	 4	 0.009733	 0.034089	 0.0185	 905	 905	 905	 1.0	 0.0	 1	 -30.0	 30.0;
	101	 5	 0.000277	 0.002015	 0.003	 288.0	 288.0	 288.0	 1.0	 0.0	 1	 -30.0	 30.0;
	286	 6	 0.00881	 0.033995	 0.0607	 289.0	 289.0	 289.0	 1.0	 0.0	 1	 -30.0	 30.0;
	329	 6	 0.004642	 0.019832	 0.0354	 255.0	 255.0	 255.0	 1.0	 0.0	 1	 -30.0	 30.0;
	737	 5	 0.008861	 0.03506	 0.0623	 288.0	 288.0	 288.0	 1.0	 0.0	 1	 -30.0	 30.0;
	760	 5	 0.006993	 0.032869	 0.0557	 255.0	 255.0	 255.0	 1.0	 0.0	 1	 -30.0	 30.0;
	1330	 6	 0.002173	 0.008731	 0.0152	 3441	 3441	 3441	 1.0	 0.0	 1	 -30.0	 30.0;
	1350	 5	 0.00077	 0.003121	 0.0051	 9629	 9629	 9629	 1.0	 0.0	 1	 -30.0	 30.0;
	1523	 6	 0.004109	 0.016138	 0.0284	 288.0	 288.0	 288.0	 1.0	 0.0	 1	 -30.0	 30.0;
	102	 8	 8.3e-05	 0.000907	 0.0202	 1034.0	 1034.0	 1034.0	 1.0	 0.0	 1	 -30.0	 30.0;
	316	 8	 0.000552	 0.006726	 0.0939	 1786.0	 1786.0	 1786.0	 1.0	 0.0	 1	 -30.0	 30.0;
	623	 8	 0.000512	 0.008012	 0.2455	 2462.0	 2462.0	 2462.0	 1.0	 0.0	 1	 -30.0	 30.0;
	882	 8	 0.001107	 0.00918	 0.1906	 1644.0	 1644.0	 1644.0	 1.0	 0.0	 1	 -30.0	 30.0;
	103	 7	 6.2e-05	 0.000741	 0.0173	 1095.0	 1095.0	 1095.0	 1.0	 0.0	 1	 -30.0	 30.0;
	623	 8	 0.000512	 0.008019	 0.2455	 2462.0	 2462.0	 2462.0	 1.0	 0.0	 1	 -30.0	 30.0;
	623	 7	 0.001153	 0.013123	 0.1841	 1433.0	 1433.0	 1433.0	 1.0	 0.0	 1	 -30.0	 30.0;
	113	 9	 0.000158	 0.000672	 0.0719	 331.0	 331.0	 331.0	 1.0	 0.0	 1	 -30.0	 30.0;
	1134	 9	 4.5e-05	 8.9e-05	 0.002	 268.0	 268.0	 268.0	 1.0	 0.0	 1	 -30.0	 30.0;
	346	 10	 0.00478	 0.028622	 0.0547	 455.0	 455.0	 455.0	 1.0	 0.0	 1	 -30.0	 30.0;
	345	 10	 0.00478	 0.028583	 0.0547	 455.0	 455.0	 455.0	 1.0	 0.0	 1	 -30.0	 30.0;
	106	 11	 0.000257	 0.000514	 0.0294	 53862	 53862	 53862	 1.0	 0.0	 1	 -30.0	 30.0;
	758	 12	 0.000257	 0.002153	 0.2147	 452.0	 452.0	 452.0	 1.0	 0.0	 1	 -30.0	 30.0;
	962	 12	 0.000277	 0.000869	 0.0931	 481.0	 481.0	 481.0	 1.0	 0.0	 1	 -30.0	 30.0;
	955	 13	 0.000237	 0.00083	 0.1863	 268.0	 268.0	 268.0	 1.0	 0.0	 1	 -30.0	 30.0;
	995	 13	 0.000178	 0.000612	 0.1377	 268.0	 268.0	 268.0	 1.0	 0.0	 1	 -30.0	 30.0;
	39	 14	 0.002568	 0.011753	 0.0203	 424.0	 424.0	 424.0	 1.0	 0.0	 1	 -30.0	 30.0;
	1428	 14	 0.002568	 0.011615	 0.0228	 290.0	 290.0	 290.0	 1.0	 0.0	 1	 -30.0	 30.0;
	1054	 16	 9.9e-05	 0.00077	 0.078	 379.0	 379.0	 379.0	 1.0	 0.0	 1	 -30.0	 30.0;
	1054	 15	 9.9e-05	 0.00077	 0.077	 379.0	 379.0	 379.0	 1.0	 0.0	 1	 -30.0	 30.0;
	1428	 17	 0.000514	 0.003437	 0.0061	 290.0	 290.0	 290.0	 1.0	 0.0	 1	 -30.0	 30.0;
	1432	 17	 0.005476	 0.036879	 0.1255	 522.0	 522.0	 522.0	 1.0	 0.0	 1	 -30.0	 30.0;
	39	 17	 0.000514	 0.003457	 0.0061	 418.0	 418.0	 418.0	 1.0	 0.0	 1	 -30.0	 30.0;
	869	 18	 0.003477	 0.01118	 0.0187	 304.0	 304.0	 304.0	 1.0	 0.0	 1	 -30.0	 30.0;
	1089	 18	 0.000612	 0.003121	 0.0152	 270.0	 270.0	 270.0	 1.0	 0.0	 1	 -30.0	 30.0;
	1164	 20	 2.4e-05	 0.000144	 0.0213	 701.0	 701.0	 701.0	 1.0	 0.0	 1	 -30.0	 30.0;
	1164	 19	 7.1e-05	 0.000162	 0.0162	 251.0	 251.0	 251.0	 1.0	 0.0	 1	 -30.0	 30.0;
	972	 21	 0.000257	 0.001165	 0.002	 405.0	 405.0	 405.0	 1.0	 0.0	 1	 -30.0	 30.0;
	476	 22	 0.005709	 0.037926	 0.0688	 492.0	 492.0	 492.0	 1.0	 0.0	 1	 -30.0	 30.0;
	1497	 22	 0.001758	 0.011654	 0.0208	 492.0	 492.0	 492.0	 1.0	 0.0	 1	 -30.0	 30.0;
	69	 23	 0.001383	 0.009462	 0.0172	 463.0	 463.0	 463.0	 1.0	 0.0	 1	 -30.0	 30.0;
	446	 23	 0.00156	 0.006933	 0.0121	 432.0	 432.0	 432.0	 1.0	 0.0	 1	 -30.0	 30.0;
	605	 23	 0.006376	 0.028733	 0.0506	 432.0	 432.0	 432.0	 1.0	 0.0	 1	 -30.0	 30.0;
	987	 23	 0.00158	 0.010627	 0.0192	 481.0	 481.0	 481.0	 1.0	 0.0	 1	 -30.0	 30.0;
	845	 25	 0.001086	 0.003536	 0.3766	 506.0	 506.0	 506.0	 1.0	 0.0	 1	 -30.0	 30.0;
	845	 25	 0.001086	 0.003536	 0.3766	 506.0	 506.0	 506.0	 1.0	 0.0	 1	 -30.0	 30.0;
	123	 27	 0.004741	 0.020385	 0.0334	 1479	 1479	 1479	 1.0	 0.0	 1	 -30.0	 30.0;
	1479	 27	 0.009027	 0.048869	 0.084	 351.0	 351.0	 351.0	 1.0	 0.0	 1	 -30.0	 30.0;
	1500	 27	 0.003516	 0.016257	 0.0273	 311.0	 311.0	 311.0	 1.0	 0.0	 1	 -30.0	 30.0;
	289	 28	 0.000514	 0.003417	 0.0278	 452.0	 452.0	 452.0	 1.0	 0.0	 1	 -30.0	 30.0;
...